<?xml version="1.0" encoding="UTF-8"?>

<!-- generated on 2024-09-29 13:37:43.706099 by randomTrips.py v1_20_0+0002-343658e7c64
<configuration>
    <net-file value="5x5.net.xml"/>
    <output-trip-file value="5x5.trips.xml"/>
    <end value="18000.0"/>
    <period-file value="normal_flows9000.txt"/>
</configuration>
-->

<routes xmlns:xsi="http://www.w3.org/2001/XMLSchema-instance" xsi:noNamespaceSchemaLocation="http://sumo.dlr.de/xsd/routes_file.xsd">
    <trip id="0" depart="0.00" from="D0E0" to="A1A0"/>
    <trip id="1" depart="0.54" from="B2B3" to="B1B0"/>
    <trip id="2" depart="1.08" from="D2D3" to="D1D2"/>
    <trip id="3" depart="1.62" from="E1E2" to="A2A3"/>
    <trip id="4" depart="2.00" from="C0D0" to="A1A0"/>
    <trip id="5" depart="2.35" from="B1B0" to="C2C3"/>
    <trip id="6" depart="2.70" from="A1A0" to="B0C0"/>
    <trip id="7" depart="3.05" from="D0E0" to="C3C2"/>
    <trip id="8" depart="3.40" from="B1B0" to="C4C3"/>
    <trip id="9" depart="3.75" from="D4C4" to="A0A1"/>
    <trip id="10" depart="4.00" from="D4C4" to="D1E1"/>
    <trip id="11" depart="4.31" from="B3C3" to="A4B4"/>
    <trip id="12" depart="4.62" from="E3E2" to="B3B4"/>
    <trip id="13" depart="4.93" from="A2B2" to="A2B2"/>
    <trip id="14" depart="5.24" from="E0D0" to="C4D4"/>
    <trip id="15" depart="5.55" from="D4C4" to="D2D3"/>
    <trip id="16" depart="5.86" from="C3B3" to="E3E4"/>
    <trip id="17" depart="6.00" from="B4C4" to="C3C4"/>
    <trip id="18" depart="6.45" from="D4E4" to="D0C0"/>
    <trip id="19" depart="6.90" from="E0E1" to="C4B4"/>
    <trip id="20" depart="7.35" from="D2C2" to="A1A2"/>
    <trip id="21" depart="7.80" from="B1B2" to="B2C2"/>
    <trip id="22" depart="8.00" from="A2A3" to="B1B2"/>
    <trip id="23" depart="8.31" from="A3A2" to="B2B3"/>
    <trip id="24" depart="8.62" from="D0D1" to="B4B3"/>
    <trip id="25" depart="8.93" from="B4B3" to="B1A1"/>
    <trip id="26" depart="9.24" from="B2B1" to="E2E3"/>
    <trip id="27" depart="9.55" from="D0E0" to="C4D4"/>
    <trip id="28" depart="9.86" from="B0A0" to="D2D3"/>
    <trip id="29" depart="10.00" from="B0A0" to="B4C4"/>
    <trip id="30" depart="10.24" from="E4E3" to="D0E0"/>
    <trip id="31" depart="10.48" from="C3C4" to="D1D2"/>
    <trip id="32" depart="10.72" from="E0D0" to="D3D4"/>
    <trip id="33" depart="10.96" from="B1B2" to="A1A0"/>
    <trip id="34" depart="11.20" from="B3B2" to="B2B1"/>
    <trip id="35" depart="11.44" from="B1A1" to="E3D3"/>
    <trip id="36" depart="11.68" from="E1E0" to="B3B2"/>
    <trip id="37" depart="11.92" from="D1C1" to="C0B0"/>
    <trip id="38" depart="12.00" from="E2E1" to="C1C2"/>
    <trip id="39" depart="12.46" from="B2B1" to="B1C1"/>
    <trip id="40" depart="12.92" from="C3C4" to="B2B1"/>
    <trip id="41" depart="13.38" from="C4B4" to="E1E2"/>
    <trip id="42" depart="13.84" from="C0B0" to="B1B0"/>
    <trip id="43" depart="14.00" from="E4E3" to="C2C3"/>
    <trip id="44" depart="14.27" from="A2B2" to="A1A2"/>
    <trip id="45" depart="14.54" from="A3A2" to="D0D1"/>
    <trip id="46" depart="14.81" from="D3E3" to="C0D0"/>
    <trip id="47" depart="15.08" from="A2A1" to="B4C4"/>
    <trip id="48" depart="15.35" from="E4E3" to="C3B3"/>
    <trip id="49" depart="15.62" from="E3E4" to="E0E1"/>
    <trip id="50" depart="15.89" from="A0A1" to="D2D1"/>
    <trip id="51" depart="16.00" from="D1D2" to="C3B3"/>
    <trip id="52" depart="16.35" from="B2B1" to="D0E0"/>
    <trip id="53" depart="16.70" from="A3A2" to="C1B1"/>
    <trip id="54" depart="17.05" from="C1C2" to="E3E2"/>
    <trip id="55" depart="17.40" from="E1E0" to="B2B1"/>
    <trip id="56" depart="17.75" from="C2C3" to="B0B1"/>
    <trip id="57" depart="18.00" from="E2E1" to="E1D1"/>
    <trip id="58" depart="18.32" from="B2C2" to="D0E0"/>
    <trip id="59" depart="18.64" from="C4D4" to="A4B4"/>
    <trip id="60" depart="18.96" from="D3D2" to="C3C2"/>
    <trip id="61" depart="19.28" from="D3D4" to="C3B3"/>
    <trip id="62" depart="19.60" from="A0A1" to="B3B2"/>
    <trip id="63" depart="19.92" from="A0B0" to="E2E3"/>
    <trip id="64" depart="20.00" from="E1E0" to="D4E4"/>
    <trip id="65" depart="20.25" from="B3A3" to="A1B1"/>
    <trip id="66" depart="20.50" from="E1E0" to="E3D3"/>
    <trip id="67" depart="20.75" from="A2A3" to="C2B2"/>
    <trip id="68" depart="21.00" from="A2A1" to="D3C3"/>
    <trip id="69" depart="21.25" from="D3D2" to="A3B3"/>
    <trip id="70" depart="21.50" from="C2B2" to="C3C2"/>
    <trip id="71" depart="21.75" from="B2B1" to="E1D1"/>
    <trip id="72" depart="22.00" from="C0D0" to="B1A1"/>
    <trip id="73" depart="22.29" from="C3C2" to="D2D3"/>
    <trip id="74" depart="22.58" from="B1A1" to="B3A3"/>
    <trip id="75" depart="22.87" from="E4E3" to="D0E0"/>
    <trip id="76" depart="23.16" from="C1C0" to="C2D2"/>
    <trip id="77" depart="23.45" from="A3A4" to="B1B0"/>
    <trip id="78" depart="23.74" from="B3C3" to="C4C3"/>
    <trip id="79" depart="24.00" from="B1B2" to="B1B0"/>
    <trip id="80" depart="25.64" from="A2A1" to="D0D1"/>
    <trip id="81" depart="26.00" from="B1B2" to="E2D2"/>
    <trip id="82" depart="26.46" from="E0E1" to="A2A1"/>
    <trip id="83" depart="26.92" from="B1C1" to="D1D0"/>
    <trip id="84" depart="27.38" from="B1B0" to="A3B3"/>
    <trip id="85" depart="27.84" from="E2E3" to="C3D3"/>
    <trip id="86" depart="28.00" from="C1D1" to="D3D4"/>
    <trip id="87" depart="28.24" from="D4C4" to="B0C0"/>
    <trip id="88" depart="28.48" from="A2B2" to="C1B1"/>
    <trip id="89" depart="28.72" from="C0D0" to="C1D1"/>
    <trip id="90" depart="28.96" from="D2D3" to="D1D0"/>
    <trip id="91" depart="29.20" from="E4D4" to="A2B2"/>
    <trip id="92" depart="29.44" from="C0C1" to="B3C3"/>
    <trip id="93" depart="29.68" from="E0E1" to="B1C1"/>
    <trip id="94" depart="29.92" from="B0C0" to="C1C0"/>
    <trip id="95" depart="30.00" from="C0D0" to="B2B3"/>
    <trip id="96" depart="30.74" from="B1C1" to="E2E1"/>
    <trip id="97" depart="31.48" from="C1C0" to="E0E1"/>
    <trip id="98" depart="32.00" from="C3C4" to="A1B1"/>
    <trip id="99" depart="32.62" from="E4E3" to="D4E4"/>
    <trip id="100" depart="33.24" from="E3E4" to="E2E3"/>
    <trip id="101" depart="33.86" from="E0D0" to="B0A0"/>
    <trip id="102" depart="34.00" from="C2B2" to="B1B0"/>
    <trip id="103" depart="34.48" from="C0C1" to="A1B1"/>
    <trip id="104" depart="34.96" from="B4C4" to="E4D4"/>
    <trip id="105" depart="35.44" from="B2B1" to="D3D4"/>
    <trip id="106" depart="35.92" from="C1C2" to="C0D0"/>
    <trip id="107" depart="36.00" from="E3E2" to="E4E3"/>
    <trip id="108" depart="36.24" from="C3C4" to="D2D1"/>
    <trip id="109" depart="36.48" from="A4B4" to="B2C2"/>
    <trip id="110" depart="36.72" from="E3E4" to="C4B4"/>
    <trip id="111" depart="36.96" from="C3C2" to="D2E2"/>
    <trip id="112" depart="37.20" from="A1B1" to="C4B4"/>
    <trip id="113" depart="37.44" from="C2C3" to="E0E1"/>
    <trip id="114" depart="37.68" from="A4B4" to="E3E2"/>
    <trip id="115" depart="37.92" from="A2A3" to="B0B1"/>
    <trip id="116" depart="38.00" from="C4C3" to="D1D2"/>
    <trip id="117" depart="38.81" from="B1B2" to="A3A4"/>
    <trip id="118" depart="39.62" from="E1E2" to="B1C1"/>
    <trip id="119" depart="40.00" from="C4C3" to="D0C0"/>
    <trip id="120" depart="40.37" from="C0D0" to="C4B4"/>
    <trip id="121" depart="40.74" from="C2D2" to="E2E3"/>
    <trip id="122" depart="41.11" from="B1A1" to="D2D1"/>
    <trip id="123" depart="41.48" from="B1C1" to="C0B0"/>
    <trip id="124" depart="41.85" from="D1D0" to="B2C2"/>
    <trip id="125" depart="42.00" from="B3B2" to="D3C3"/>
    <trip id="126" depart="42.77" from="A2A1" to="C1C2"/>
    <trip id="127" depart="43.54" from="E4E3" to="E4E3"/>
    <trip id="128" depart="44.00" from="A2A1" to="B1B0"/>
    <trip id="129" depart="44.35" from="B2B1" to="E2E3"/>
    <trip id="130" depart="44.70" from="E1E0" to="E1E0"/>
    <trip id="131" depart="45.05" from="B4B3" to="A4B4"/>
    <trip id="132" depart="45.40" from="D4E4" to="D2C2"/>
    <trip id="133" depart="45.75" from="C4D4" to="E4D4"/>
    <trip id="134" depart="46.00" from="D1C1" to="A0A1"/>
    <trip id="135" depart="47.85" from="D4D3" to="B2C2"/>
    <trip id="136" depart="48.00" from="D1D0" to="E3D3"/>
    <trip id="137" depart="48.34" from="A3B3" to="A3A4"/>
    <trip id="138" depart="48.68" from="A3A2" to="C3C4"/>
    <trip id="139" depart="49.02" from="B2B1" to="C4D4"/>
    <trip id="140" depart="49.36" from="D2D1" to="B1A1"/>
    <trip id="141" depart="49.70" from="D0D1" to="B2B1"/>
    <trip id="142" depart="50.00" from="C2C1" to="E2D2"/>
    <trip id="143" depart="50.29" from="E0D0" to="A2B2"/>
    <trip id="144" depart="50.58" from="C0D0" to="B2B3"/>
    <trip id="145" depart="50.87" from="A0A1" to="D3D2"/>
    <trip id="146" depart="51.16" from="D0D1" to="B2A2"/>
    <trip id="147" depart="51.45" from="D2E2" to="C3C4"/>
    <trip id="148" depart="51.74" from="C1B1" to="A0A1"/>
    <trip id="149" depart="52.00" from="A2A3" to="E1E0"/>
    <trip id="150" depart="52.42" from="E2D2" to="C3C2"/>
    <trip id="151" depart="52.84" from="D4E4" to="C4B4"/>
    <trip id="152" depart="53.26" from="A4A3" to="A3B3"/>
    <trip id="153" depart="53.68" from="B3A3" to="E1E2"/>
    <trip id="154" depart="54.00" from="D3E3" to="E0E1"/>
    <trip id="155" depart="54.22" from="E1E2" to="B1A1"/>
    <trip id="156" depart="54.44" from="B1C1" to="A3A2"/>
    <trip id="157" depart="54.66" from="D3D4" to="E1E0"/>
    <trip id="158" depart="54.88" from="C0C1" to="D0C0"/>
    <trip id="159" depart="55.10" from="A4B4" to="E2E3"/>
    <trip id="160" depart="55.32" from="E1D1" to="E4D4"/>
    <trip id="161" depart="55.54" from="D4C4" to="E1E0"/>
    <trip id="162" depart="55.76" from="A0B0" to="D2D3"/>
    <trip id="163" depart="55.98" from="B3B4" to="E2E3"/>
    <trip id="164" depart="56.00" from="D4C4" to="E1D1"/>
    <trip id="165" depart="56.42" from="D4C4" to="B2B1"/>
    <trip id="166" depart="56.84" from="D3D4" to="A3A2"/>
    <trip id="167" depart="57.26" from="E1D1" to="E0E1"/>
    <trip id="168" depart="57.68" from="B1B0" to="D4D3"/>
    <trip id="169" depart="58.00" from="C1C2" to="B3A3"/>
    <trip id="170" depart="58.27" from="D3E3" to="B1B2"/>
    <trip id="171" depart="58.54" from="A0B0" to="B0C0"/>
    <trip id="172" depart="58.81" from="B3B4" to="E1D1"/>
    <trip id="173" depart="59.08" from="E3E4" to="B2B3"/>
    <trip id="174" depart="59.35" from="D0E0" to="C0B0"/>
    <trip id="175" depart="59.62" from="E4D4" to="C3B3"/>
    <trip id="176" depart="59.89" from="E3D3" to="A3A4"/>
    <trip id="177" depart="60.00" from="E3E4" to="B0B1"/>
    <trip id="178" depart="60.24" from="E3E4" to="B2B1"/>
    <trip id="179" depart="60.48" from="A3A2" to="C1B1"/>
    <trip id="180" depart="60.72" from="D2D3" to="B3B2"/>
    <trip id="181" depart="60.96" from="C4D4" to="C2C3"/>
    <trip id="182" depart="61.20" from="B4C4" to="C4B4"/>
    <trip id="183" depart="61.44" from="B2A2" to="D2C2"/>
    <trip id="184" depart="61.68" from="A0A1" to="E2E3"/>
    <trip id="185" depart="61.92" from="C3C2" to="D2D1"/>
    <trip id="186" depart="62.00" from="D2E2" to="D1D0"/>
    <trip id="187" depart="62.29" from="B4B3" to="A2A1"/>
    <trip id="188" depart="62.58" from="D1D0" to="B3B4"/>
    <trip id="189" depart="62.87" from="B3B2" to="E0D0"/>
    <trip id="190" depart="63.16" from="D2D1" to="B3A3"/>
    <trip id="191" depart="63.45" from="B3A3" to="C0C1"/>
    <trip id="192" depart="63.74" from="C0C1" to="B2C2"/>
    <trip id="193" depart="64.00" from="A3B3" to="C0D0"/>
    <trip id="194" depart="64.33" from="E3D3" to="D1D2"/>
    <trip id="195" depart="64.66" from="E2D2" to="D0C0"/>
    <trip id="196" depart="64.99" from="B3A3" to="C3C2"/>
    <trip id="197" depart="65.32" from="A0A1" to="B2B3"/>
    <trip id="198" depart="65.65" from="C1B1" to="C4B4"/>
    <trip id="199" depart="65.98" from="D1C1" to="C1D1"/>
    <trip id="200" depart="66.00" from="C1C0" to="B1B0"/>
    <trip id="201" depart="66.30" from="C1D1" to="E2D2"/>
    <trip id="202" depart="66.60" from="D3E3" to="B0A0"/>
    <trip id="203" depart="66.90" from="A2A3" to="C2D2"/>
    <trip id="204" depart="67.20" from="D0D1" to="B3B4"/>
    <trip id="205" depart="67.50" from="D4D3" to="D3C3"/>
    <trip id="206" depart="67.80" from="D1D0" to="B1B0"/>
    <trip id="207" depart="68.00" from="B0C0" to="A0B0"/>
    <trip id="208" depart="68.28" from="B1C1" to="C2B2"/>
    <trip id="209" depart="68.56" from="E0D0" to="A2A1"/>
    <trip id="210" depart="68.84" from="C0D0" to="D0D1"/>
    <trip id="211" depart="69.12" from="B0C0" to="D1E1"/>
    <trip id="212" depart="69.40" from="C2C1" to="B1C1"/>
    <trip id="213" depart="69.68" from="D1C1" to="A0A1"/>
    <trip id="214" depart="69.96" from="D3C3" to="D3D2"/>
    <trip id="215" depart="70.00" from="A3A2" to="C1B1"/>
    <trip id="216" depart="70.28" from="B0B1" to="E3E2"/>
    <trip id="217" depart="70.56" from="C2D2" to="A1B1"/>
    <trip id="218" depart="70.84" from="B1C1" to="E0D0"/>
    <trip id="219" depart="71.12" from="C1C2" to="D4C4"/>
    <trip id="220" depart="71.40" from="D1D0" to="E4E3"/>
    <trip id="221" depart="71.68" from="C4C3" to="E3E2"/>
    <trip id="222" depart="71.96" from="E1E2" to="D0C0"/>
    <trip id="223" depart="72.00" from="D2D1" to="C2C3"/>
    <trip id="224" depart="72.25" from="D4E4" to="C3C2"/>
    <trip id="225" depart="72.50" from="E1E2" to="D2E2"/>
    <trip id="226" depart="72.75" from="C1D1" to="B2A2"/>
    <trip id="227" depart="73.00" from="B1C1" to="D0E0"/>
    <trip id="228" depart="73.25" from="D3D2" to="C2D2"/>
    <trip id="229" depart="73.50" from="D0D1" to="B2B1"/>
    <trip id="230" depart="73.75" from="A2A3" to="B2B3"/>
    <trip id="231" depart="74.00" from="B2B1" to="B3B2"/>
    <trip id="232" depart="74.29" from="C3C2" to="A4A3"/>
    <trip id="233" depart="74.58" from="B1B2" to="D1E1"/>
    <trip id="234" depart="74.87" from="D2C2" to="A2A1"/>
    <trip id="235" depart="75.16" from="C0C1" to="C3C2"/>
    <trip id="236" depart="75.45" from="C0D0" to="B1A1"/>
    <trip id="237" depart="75.74" from="C0D0" to="E2D2"/>
    <trip id="238" depart="76.00" from="C4B4" to="D1E1"/>
    <trip id="239" depart="76.35" from="E0E1" to="D3D2"/>
    <trip id="240" depart="76.70" from="B4C4" to="A0A1"/>
    <trip id="241" depart="77.05" from="B4A4" to="D3C3"/>
    <trip id="242" depart="77.40" from="E0E1" to="E3E2"/>
    <trip id="243" depart="77.75" from="C0D0" to="D2E2"/>
    <trip id="244" depart="78.00" from="C3C2" to="C4D4"/>
    <trip id="245" depart="78.54" from="B1B0" to="B1B0"/>
    <trip id="246" depart="79.08" from="C1B1" to="A1A0"/>
    <trip id="247" depart="79.62" from="B3B4" to="D1D2"/>
    <trip id="248" depart="80.00" from="C0C1" to="B0A0"/>
    <trip id="249" depart="80.23" from="C1D1" to="A3B3"/>
    <trip id="250" depart="80.46" from="D0C0" to="A1A0"/>
    <trip id="251" depart="80.69" from="C0B0" to="C3D3"/>
    <trip id="252" depart="80.92" from="A1A0" to="D0E0"/>
    <trip id="253" depart="81.15" from="A3B3" to="C1C2"/>
    <trip id="254" depart="81.38" from="A1B1" to="B4C4"/>
    <trip id="255" depart="81.61" from="B1A1" to="B3B4"/>
    <trip id="256" depart="81.84" from="D3C3" to="B4C4"/>
    <trip id="257" depart="82.00" from="D3C3" to="D4E4"/>
    <trip id="258" depart="82.59" from="B2A2" to="A2A3"/>
    <trip id="259" depart="83.18" from="A0B0" to="C3C2"/>
    <trip id="260" depart="83.77" from="E4E3" to="B3C3"/>
    <trip id="261" depart="84.00" from="D1C1" to="D3D4"/>
    <trip id="262" depart="84.28" from="D1C1" to="D3C3"/>
    <trip id="263" depart="84.56" from="E3D3" to="B0C0"/>
    <trip id="264" depart="84.84" from="A0B0" to="A4B4"/>
    <trip id="265" depart="85.12" from="A3B3" to="D1D0"/>
    <trip id="266" depart="85.40" from="C3D3" to="B1B0"/>
    <trip id="267" depart="85.68" from="D1E1" to="D3D2"/>
    <trip id="268" depart="85.96" from="B0A0" to="C4D4"/>
    <trip id="269" depart="86.00" from="D2E2" to="A3A4"/>
    <trip id="270" depart="86.26" from="D4D3" to="E3E4"/>
    <trip id="271" depart="86.52" from="A3A2" to="A1A0"/>
    <trip id="272" depart="86.78" from="B3A3" to="D1D2"/>
    <trip id="273" depart="87.04" from="E3E2" to="C0B0"/>
    <trip id="274" depart="87.30" from="D2D1" to="A2A3"/>
    <trip id="275" depart="87.56" from="D1E1" to="D0D1"/>
    <trip id="276" depart="87.82" from="A3A2" to="D3D2"/>
    <trip id="277" depart="88.00" from="E0E1" to="C4D4"/>
    <trip id="278" depart="88.33" from="A3A4" to="E4D4"/>
    <trip id="279" depart="88.66" from="D3D4" to="B3C3"/>
    <trip id="280" depart="88.99" from="C1B1" to="B4B3"/>
    <trip id="281" depart="89.32" from="C2C3" to="B3C3"/>
    <trip id="282" depart="89.65" from="E0D0" to="D4D3"/>
    <trip id="283" depart="89.98" from="A3A2" to="E3E2"/>
    <trip id="284" depart="90.00" from="D0D1" to="D4E4"/>
    <trip id="285" depart="90.28" from="D2C2" to="C1B1"/>
    <trip id="286" depart="90.56" from="D2D3" to="E3E4"/>
    <trip id="287" depart="90.84" from="B2B1" to="D4C4"/>
    <trip id="288" depart="91.12" from="C3C2" to="C2B2"/>
    <trip id="289" depart="91.40" from="C1B1" to="D2D3"/>
    <trip id="290" depart="91.68" from="B2B1" to="E0E1"/>
    <trip id="291" depart="91.96" from="D4E4" to="A2A3"/>
    <trip id="292" depart="92.00" from="E1E0" to="B1C1"/>
    <trip id="293" depart="92.32" from="C1D1" to="C4D4"/>
    <trip id="294" depart="92.64" from="B4C4" to="A1A0"/>
    <trip id="295" depart="92.96" from="E0E1" to="B0B1"/>
    <trip id="296" depart="93.28" from="B1A1" to="D3E3"/>
    <trip id="297" depart="93.60" from="B3C3" to="E1E0"/>
    <trip id="298" depart="93.92" from="D2C2" to="B2B3"/>
    <trip id="299" depart="94.00" from="A0A1" to="E3D3"/>
    <trip id="300" depart="94.21" from="A2A3" to="D2D1"/>
    <trip id="301" depart="94.42" from="C2C1" to="D3C3"/>
    <trip id="302" depart="94.63" from="D1E1" to="D0E0"/>
    <trip id="303" depart="94.84" from="C2C1" to="D3E3"/>
    <trip id="304" depart="95.05" from="A2B2" to="B1B0"/>
    <trip id="305" depart="95.26" from="D1E1" to="B3A3"/>
    <trip id="306" depart="95.47" from="C4B4" to="C1D1"/>
    <trip id="307" depart="95.68" from="C3B3" to="C1B1"/>
    <trip id="308" depart="95.89" from="D2E2" to="B3B4"/>
    <trip id="309" depart="96.00" from="D2C2" to="B2B1"/>
    <trip id="310" depart="96.28" from="B2A2" to="A3A4"/>
    <trip id="311" depart="96.56" from="B0C0" to="A3A4"/>
    <trip id="312" depart="96.84" from="C3B3" to="D3C3"/>
    <trip id="313" depart="97.12" from="B0B1" to="B1B0"/>
    <trip id="314" depart="97.40" from="C2B2" to="D2D1"/>
    <trip id="315" depart="97.68" from="E4D4" to="C2D2"/>
    <trip id="316" depart="97.96" from="B2B3" to="A3A2"/>
    <trip id="317" depart="98.00" from="B0C0" to="B1B2"/>
    <trip id="318" depart="98.43" from="B0B1" to="A0B0"/>
    <trip id="319" depart="98.86" from="C3B3" to="B2B1"/>
    <trip id="320" depart="99.29" from="E3E4" to="C3C4"/>
    <trip id="321" depart="99.72" from="D1E1" to="A3B3"/>
    <trip id="322" depart="100.00" from="E1D1" to="C2C1"/>
    <trip id="323" depart="100.29" from="E1D1" to="C3D3"/>
    <trip id="324" depart="100.58" from="C1D1" to="C1C0"/>
    <trip id="325" depart="100.87" from="B0B1" to="A1B1"/>
    <trip id="326" depart="101.16" from="E3D3" to="C2B2"/>
    <trip id="327" depart="101.45" from="D4D3" to="C0C1"/>
    <trip id="328" depart="101.74" from="A2A1" to="D0D1"/>
    <trip id="329" depart="102.00" from="A1B1" to="A4A3"/>
    <trip id="330" depart="102.34" from="C3D3" to="B3A3"/>
    <trip id="331" depart="102.68" from="E4E3" to="A3A4"/>
    <trip id="332" depart="103.02" from="D3D2" to="C4D4"/>
    <trip id="333" depart="103.36" from="D3E3" to="B1B2"/>
    <trip id="334" depart="103.70" from="C2D2" to="C1C2"/>
    <trip id="335" depart="104.00" from="C1C0" to="E0E1"/>
    <trip id="336" depart="104.28" from="E4E3" to="B3A3"/>
    <trip id="337" depart="104.56" from="D0C0" to="C4D4"/>
    <trip id="338" depart="104.84" from="D2E2" to="E3D3"/>
    <trip id="339" depart="105.12" from="B1A1" to="B1A1"/>
    <trip id="340" depart="105.40" from="D1C1" to="A4B4"/>
    <trip id="341" depart="105.68" from="B0A0" to="A2A3"/>
    <trip id="342" depart="105.96" from="A0A1" to="C1C2"/>
    <trip id="343" depart="106.00" from="C4C3" to="B2C2"/>
    <trip id="344" depart="106.49" from="B1B2" to="D2C2"/>
    <trip id="345" depart="106.98" from="D2C2" to="C1C2"/>
    <trip id="346" depart="107.47" from="D1D2" to="E2E1"/>
    <trip id="347" depart="107.96" from="D3E3" to="D0D1"/>
    <trip id="348" depart="108.00" from="D1C1" to="E2E3"/>
    <trip id="349" depart="108.45" from="C1B1" to="C3C2"/>
    <trip id="350" depart="108.90" from="D0E0" to="E2D2"/>
    <trip id="351" depart="109.35" from="D4E4" to="A2A1"/>
    <trip id="352" depart="109.80" from="B0A0" to="B3A3"/>
    <trip id="353" depart="110.00" from="D2E2" to="C3D3"/>
    <trip id="354" depart="110.43" from="B2C2" to="A3A4"/>
    <trip id="355" depart="110.86" from="D1E1" to="D1E1"/>
    <trip id="356" depart="111.29" from="E3D3" to="C2C3"/>
    <trip id="357" depart="111.72" from="C2C1" to="A2A3"/>
    <trip id="358" depart="112.00" from="A1A2" to="C1B1"/>
    <trip id="359" depart="112.22" from="B3B2" to="B2A2"/>
    <trip id="360" depart="112.44" from="A2B2" to="E3E2"/>
    <trip id="361" depart="112.66" from="D4E4" to="C4B4"/>
    <trip id="362" depart="112.88" from="E3E2" to="E4E3"/>
    <trip id="363" depart="113.10" from="D1D0" to="B2B1"/>
    <trip id="364" depart="113.32" from="A1A2" to="D3C3"/>
    <trip id="365" depart="113.54" from="C1D1" to="D1C1"/>
    <trip id="366" depart="113.76" from="E2E1" to="B0B1"/>
    <trip id="367" depart="113.98" from="C4B4" to="D0D1"/>
    <trip id="368" depart="114.00" from="C2C1" to="A2B2"/>
    <trip id="369" depart="114.34" from="B3C3" to="B3B4"/>
    <trip id="370" depart="114.68" from="D1D0" to="E0E1"/>
    <trip id="371" depart="115.02" from="B3B4" to="D1E1"/>
    <trip id="372" depart="115.36" from="B2C2" to="E3D3"/>
    <trip id="373" depart="115.70" from="D4D3" to="C3C4"/>
    <trip id="374" depart="116.00" from="C1C2" to="B3B2"/>
    <trip id="375" depart="116.25" from="B3B2" to="E3E4"/>
    <trip id="376" depart="116.50" from="C0C1" to="C2D2"/>
    <trip id="377" depart="116.75" from="E4E3" to="D1C1"/>
    <trip id="378" depart="117.00" from="C3C2" to="C0D0"/>
    <trip id="379" depart="117.25" from="B0C0" to="B4A4"/>
    <trip id="380" depart="117.50" from="D3C3" to="D0D1"/>
    <trip id="381" depart="117.75" from="D3C3" to="B1A1"/>
    <trip id="382" depart="118.00" from="C3C2" to="E2E3"/>
    <trip id="383" depart="118.40" from="C1C0" to="D1E1"/>
    <trip id="384" depart="118.80" from="A3A4" to="E3E4"/>
    <trip id="385" depart="119.20" from="C4D4" to="B1C1"/>
    <trip id="386" depart="119.60" from="A4B4" to="C3C4"/>
    <trip id="387" depart="120.00" from="C3C4" to="A2B2"/>
    <trip id="388" depart="120.35" from="E4E3" to="E2E1"/>
    <trip id="389" depart="120.70" from="C1C2" to="A3A4"/>
    <trip id="390" depart="121.05" from="D4E4" to="C2C1"/>
    <trip id="391" depart="121.40" from="D2D1" to="C2C3"/>
    <trip id="392" depart="121.75" from="B2B1" to="D4E4"/>
    <trip id="393" depart="122.00" from="E4D4" to="B1C1"/>
    <trip id="394" depart="122.29" from="C3C4" to="B4C4"/>
    <trip id="395" depart="122.58" from="E2E1" to="C2C3"/>
    <trip id="396" depart="122.87" from="E1E0" to="E1D1"/>
    <trip id="397" depart="123.16" from="B2B3" to="D3E3"/>
    <trip id="398" depart="123.45" from="C0D0" to="E2E3"/>
    <trip id="399" depart="123.74" from="C2C3" to="D4D3"/>
    <trip id="400" depart="124.00" from="B2B3" to="B2C2"/>
    <trip id="401" depart="124.65" from="C4B4" to="E4E3"/>
    <trip id="402" depart="125.30" from="C2C1" to="A4A3"/>
    <trip id="403" depart="125.95" from="C3C2" to="B3C3"/>
    <trip id="404" depart="126.00" from="C3C4" to="C3C2"/>
    <trip id="405" depart="126.55" from="C1C2" to="B3B2"/>
    <trip id="406" depart="127.10" from="B0C0" to="D1E1"/>
    <trip id="407" depart="127.65" from="C3D3" to="B1B2"/>
    <trip id="408" depart="128.00" from="D3D4" to="A1A2"/>
    <trip id="409" depart="128.46" from="D2E2" to="D2C2"/>
    <trip id="410" depart="128.92" from="D4C4" to="B4C4"/>
    <trip id="411" depart="129.38" from="D1D0" to="D4D3"/>
    <trip id="412" depart="129.84" from="E4D4" to="C2C1"/>
    <trip id="413" depart="130.00" from="A1A0" to="C2C3"/>
    <trip id="414" depart="130.62" from="C4C3" to="E1D1"/>
    <trip id="415" depart="131.24" from="E1D1" to="C1C0"/>
    <trip id="416" depart="131.86" from="C3B3" to="C1C2"/>
    <trip id="417" depart="132.00" from="D2D1" to="C0C1"/>
    <trip id="418" depart="132.32" from="D1C1" to="A4B4"/>
    <trip id="419" depart="132.64" from="C1D1" to="E3E4"/>
    <trip id="420" depart="132.96" from="B3C3" to="D1E1"/>
    <trip id="421" depart="133.28" from="D0E0" to="E0E1"/>
    <trip id="422" depart="133.60" from="E0E1" to="E0E1"/>
    <trip id="423" depart="133.92" from="B4C4" to="B3B2"/>
    <trip id="424" depart="134.00" from="D2D1" to="D3C3"/>
    <trip id="425" depart="135.42" from="E1D1" to="A1A0"/>
    <trip id="426" depart="136.00" from="A2A1" to="D0D1"/>
    <trip id="427" depart="136.26" from="E2E1" to="E4E3"/>
    <trip id="428" depart="136.52" from="D2E2" to="C1B1"/>
    <trip id="429" depart="136.78" from="A2B2" to="D0D1"/>
    <trip id="430" depart="137.04" from="E1D1" to="C1C0"/>
    <trip id="431" depart="137.30" from="D1E1" to="E2D2"/>
    <trip id="432" depart="137.56" from="A1A2" to="D3E3"/>
    <trip id="433" depart="137.82" from="B2C2" to="B4B3"/>
    <trip id="434" depart="138.00" from="A4A3" to="C3B3"/>
    <trip id="435" depart="138.44" from="C3D3" to="D3E3"/>
    <trip id="436" depart="138.88" from="B0A0" to="A2A3"/>
    <trip id="437" depart="139.32" from="E1D1" to="D0C0"/>
    <trip id="438" depart="139.76" from="B1C1" to="E2E1"/>
    <trip id="439" depart="140.00" from="A4A3" to="C1C2"/>
    <trip id="440" depart="140.36" from="B2A2" to="B2A2"/>
    <trip id="441" depart="140.72" from="A0A1" to="D4C4"/>
    <trip id="442" depart="141.08" from="E2D2" to="D1D2"/>
    <trip id="443" depart="141.44" from="A4B4" to="C1C0"/>
    <trip id="444" depart="141.80" from="B3C3" to="C4C3"/>
    <trip id="445" depart="142.00" from="D0E0" to="C0D0"/>
    <trip id="446" depart="142.97" from="B2A2" to="E0D0"/>
    <trip id="447" depart="143.94" from="B0C0" to="B4C4"/>
    <trip id="448" depart="144.00" from="C2B2" to="B1B2"/>
    <trip id="449" depart="144.25" from="C3D3" to="C3D3"/>
    <trip id="450" depart="144.50" from="E4E3" to="B2C2"/>
    <trip id="451" depart="144.75" from="E4D4" to="D1C1"/>
    <trip id="452" depart="145.00" from="B2B1" to="C3D3"/>
    <trip id="453" depart="145.25" from="D1D2" to="D2E2"/>
    <trip id="454" depart="145.50" from="A1A2" to="C4D4"/>
    <trip id="455" depart="145.75" from="C2C1" to="E2D2"/>
    <trip id="456" depart="146.00" from="B2B3" to="D3E3"/>
    <trip id="457" depart="146.38" from="C4D4" to="B4A4"/>
    <trip id="458" depart="146.76" from="D0D1" to="D0C0"/>
    <trip id="459" depart="147.14" from="D1D2" to="D2D1"/>
    <trip id="460" depart="147.52" from="D1C1" to="E0D0"/>
    <trip id="461" depart="147.90" from="D0D1" to="E2D2"/>
    <trip id="462" depart="148.00" from="D0E0" to="B3A3"/>
    <trip id="463" depart="148.23" from="C1C0" to="C4B4"/>
    <trip id="464" depart="148.46" from="D2D3" to="A2B2"/>
    <trip id="465" depart="148.69" from="B2C2" to="D2E2"/>
    <trip id="466" depart="148.92" from="B0B1" to="A3B3"/>
    <trip id="467" depart="149.15" from="C3C2" to="E3E4"/>
    <trip id="468" depart="149.38" from="C3B3" to="E2E1"/>
    <trip id="469" depart="149.61" from="D4E4" to="B2A2"/>
    <trip id="470" depart="149.84" from="D4D3" to="C2B2"/>
    <trip id="471" depart="150.00" from="D4C4" to="D2E2"/>
    <trip id="472" depart="150.28" from="B3C3" to="A3A4"/>
    <trip id="473" depart="150.56" from="E3E4" to="A4A3"/>
    <trip id="474" depart="150.84" from="E3E4" to="E0E1"/>
    <trip id="475" depart="151.12" from="D2D1" to="E4D4"/>
    <trip id="476" depart="151.40" from="E3E4" to="D4C4"/>
    <trip id="477" depart="151.68" from="B4B3" to="D3E3"/>
    <trip id="478" depart="151.96" from="A0B0" to="C3B3"/>
    <trip id="479" depart="152.00" from="C1C2" to="D1D0"/>
    <trip id="480" depart="152.26" from="D1D0" to="C4B4"/>
    <trip id="481" depart="152.52" from="D4D3" to="E3D3"/>
    <trip id="482" depart="152.78" from="A3A2" to="B1B2"/>
    <trip id="483" depart="153.04" from="A1A0" to="E1E0"/>
    <trip id="484" depart="153.30" from="C3C4" to="E2E1"/>
    <trip id="485" depart="153.56" from="B1B0" to="A2A1"/>
    <trip id="486" depart="153.82" from="D4D3" to="E2D2"/>
    <trip id="487" depart="154.00" from="B3A3" to="C0C1"/>
    <trip id="488" depart="154.33" from="A4A3" to="E3D3"/>
    <trip id="489" depart="154.66" from="B3A3" to="C2C1"/>
    <trip id="490" depart="154.99" from="A2B2" to="E1E0"/>
    <trip id="491" depart="155.32" from="A3B3" to="C1C2"/>
    <trip id="492" depart="155.65" from="D1D0" to="D2E2"/>
    <trip id="493" depart="155.98" from="E3D3" to="C0D0"/>
    <trip id="494" depart="156.00" from="D2E2" to="A4B4"/>
    <trip id="495" depart="156.23" from="C0D0" to="A2B2"/>
    <trip id="496" depart="156.46" from="C2C1" to="C0C1"/>
    <trip id="497" depart="156.69" from="E3E2" to="A1A0"/>
    <trip id="498" depart="156.92" from="B4B3" to="C1C0"/>
    <trip id="499" depart="157.15" from="E3E2" to="E0E1"/>
    <trip id="500" depart="157.38" from="A2B2" to="D1D2"/>
    <trip id="501" depart="157.61" from="C3C2" to="E4D4"/>
    <trip id="502" depart="157.84" from="B4A4" to="C0B0"/>
    <trip id="503" depart="158.00" from="B0C0" to="A3A4"/>
    <trip id="504" depart="158.42" from="E0D0" to="C1C2"/>
    <trip id="505" depart="158.84" from="D1D0" to="D0E0"/>
    <trip id="506" depart="159.26" from="C4C3" to="A0B0"/>
    <trip id="507" depart="159.68" from="D3D4" to="B1C1"/>