<?xml version="1.0" encoding="UTF-8"?>

<!-- generated on 2025-09-30 18:22:17 by Eclipse SUMO netedit Version 1.20.0
<configuration xmlns:xsi="http://www.w3.org/2001/XMLSchema-instance" xsi:noNamespaceSchemaLocation="http://sumo.dlr.de/xsd/neteditConfiguration.xsd">

    <input>
        <sumocfg-file value="C:\Users\pouri\Desktop\tlsc\left_turn\5x5.sumocfg"/>
        <additional-files value=""/>
        <route-files value="C:\Users\pouri\Desktop\tlsc\left_turn\5x5.rou.xml"/>
        <sumo-net-file value="C:\Users\pouri\Desktop\tlsc\left_turn\5x5.net.xml"/>
    </input>

    <output>
        <output-file value="C:\Users\pouri\Desktop\tlsc\left_turn\5x5.net.xml"/>
    </output>

    <processing>
        <geometry.min-radius.fix.railways value="false"/>
        <geometry.max-grade.fix value="false"/>
        <offset.disable-normalization value="true"/>
        <lefthand value="0"/>
    </processing>

    <junctions>
        <no-turnarounds value="true"/>
        <junctions.corner-detail value="5"/>
        <junctions.limit-turn-speed value="5.50"/>
        <rectangular-lane-cut value="0"/>
    </junctions>

    <pedestrian>
        <walkingareas value="0"/>
    </pedestrian>

    <netedit>
        <ignore.routeelements value="false"/>
    </netedit>

</configuration>
-->

<net version="1.20" junctionCornerDetail="5" limitTurnSpeed="5.50" xmlns:xsi="http://www.w3.org/2001/XMLSchema-instance" xsi:noNamespaceSchemaLocation="http://sumo.dlr.de/xsd/net_file.xsd">

    <location netOffset="0.00,0.00" convBoundary="0.00,0.00,2000.00,2000.00" origBoundary="0.00,0.00,2000.00,2000.00" projParameter="!"/>

    <edge id=":A0_0" function="internal">
        <lane id=":A0_0_0" index="0" speed="11.12" length="28.38" shape="-8.00,9.60 -6.90,1.90 -3.60,-3.60 1.90,-6.90 9.60,-8.00"/>
        <lane id=":A0_0_1" index="1" speed="10.10" length="23.22" shape="-4.80,9.60 -3.90,3.30 -1.20,-1.20 3.30,-3.90 9.60,-4.80"/>
        <lane id=":A0_0_2" index="2" speed="8.96" length="18.06" shape="-1.60,9.60 -0.90,4.70 1.20,1.20 4.70,-0.90 9.60,-1.60"/>
    </edge>
    <edge id=":A0_3" function="internal">
        <lane id=":A0_3_0" index="0" speed="3.90" length="2.58" shape="9.60,8.00 8.90,8.10 8.40,8.40 8.10,8.90 8.00,9.60"/>
        <lane id=":A0_3_1" index="1" speed="6.08" length="7.74" shape="9.60,4.80 7.50,5.10 6.00,6.00 5.10,7.50 4.80,9.60"/>
        <lane id=":A0_3_2" index="2" speed="7.66" length="12.90" shape="9.60,1.60 6.10,2.10 3.60,3.60 2.10,6.10 1.60,9.60"/>
    </edge>
    <edge id=":A1_0" function="internal">
        <lane id=":A1_0_0" index="0" speed="13.89" length="27.20" shape="-8.00,513.60 -8.00,486.40"/>
        <lane id=":A1_0_1" index="1" speed="13.89" length="27.20" shape="-4.80,513.60 -4.80,486.40"/>
        <lane id=":A1_0_2" index="2" speed="13.89" length="27.20" shape="-1.60,513.60 -1.60,486.40"/>
    </edge>
    <edge id=":A1_3" function="internal">
        <lane id=":A1_3_0" index="0" speed="10.88" length="27.14" shape="-1.60,513.60 -0.65,505.55 2.20,499.80 6.95,496.35 13.60,495.20"/>
        <lane id=":A1_3_1" index="1" speed="10.36" length="24.51" shape="-1.60,513.60 -0.65,506.95 2.20,502.20 6.95,499.35 13.60,498.40"/>
    </edge>
    <edge id=":A1_5" function="internal">
        <lane id=":A1_5_0" index="0" speed="6.51" length="9.03" shape="13.60,508.00 11.15,508.35 9.40,509.40 8.35,511.15 8.00,513.60"/>
    </edge>
    <edge id=":A1_6" function="internal">
        <lane id=":A1_6_0" index="0" speed="11.36" length="29.67" shape="13.60,504.80 5.55,503.65 -0.20,500.20 -3.65,494.45 -4.80,486.40"/>
        <lane id=":A1_6_1" index="1" speed="10.36" length="24.51" shape="13.60,501.60 6.95,500.65 2.20,497.80 -0.65,493.05 -1.60,486.40"/>
    </edge>
    <edge id=":A1_8" function="internal">
        <lane id=":A1_8_0" index="0" speed="6.51" length="9.03" shape="8.00,486.40 8.35,488.85 9.40,490.60 11.15,491.65 13.60,492.00"/>
    </edge>
    <edge id=":A1_9" function="internal">
        <lane id=":A1_9_0" index="0" speed="13.89" length="27.20" shape="8.00,486.40 8.00,513.60"/>
        <lane id=":A1_9_1" index="1" speed="13.89" length="27.20" shape="4.80,486.40 4.80,513.60"/>
        <lane id=":A1_9_2" index="2" speed="13.89" length="27.20" shape="1.60,486.40 1.60,513.60"/>
    </edge>
    <edge id=":A2_0" function="internal">
        <lane id=":A2_0_0" index="0" speed="13.89" length="27.20" shape="-8.00,1013.60 -8.00,986.40"/>
        <lane id=":A2_0_1" index="1" speed="13.89" length="27.20" shape="-4.80,1013.60 -4.80,986.40"/>
        <lane id=":A2_0_2" index="2" speed="13.89" length="27.20" shape="-1.60,1013.60 -1.60,986.40"/>
    </edge>
    <edge id=":A2_3" function="internal">
        <lane id=":A2_3_0" index="0" speed="10.88" length="27.14" shape="-1.60,1013.60 -0.65,1005.55 2.20,999.80 6.95,996.35 13.60,995.20"/>
        <lane id=":A2_3_1" index="1" speed="10.36" length="24.51" shape="-1.60,1013.60 -0.65,1006.95 2.20,1002.20 6.95,999.35 13.60,998.40"/>
    </edge>
    <edge id=":A2_5" function="internal">
        <lane id=":A2_5_0" index="0" speed="6.51" length="9.03" shape="13.60,1008.00 11.15,1008.35 9.40,1009.40 8.35,1011.15 8.00,1013.60"/>
    </edge>
    <edge id=":A2_6" function="internal">
        <lane id=":A2_6_0" index="0" speed="11.36" length="29.67" shape="13.60,1004.80 5.55,1003.65 -0.20,1000.20 -3.65,994.45 -4.80,986.40"/>
        <lane id=":A2_6_1" index="1" speed="10.36" length="24.51" shape="13.60,1001.60 6.95,1000.65 2.20,997.80 -0.65,993.05 -1.60,986.40"/>
    </edge>
    <edge id=":A2_8" function="internal">
        <lane id=":A2_8_0" index="0" speed="6.51" length="9.03" shape="8.00,986.40 8.35,988.85 9.40,990.60 11.15,991.65 13.60,992.00"/>
    </edge>
    <edge id=":A2_9" function="internal">
        <lane id=":A2_9_0" index="0" speed="13.89" length="27.20" shape="8.00,986.40 8.00,1013.60"/>
        <lane id=":A2_9_1" index="1" speed="13.89" length="27.20" shape="4.80,986.40 4.80,1013.60"/>
        <lane id=":A2_9_2" index="2" speed="13.89" length="27.20" shape="1.60,986.40 1.60,1013.60"/>
    </edge>
    <edge id=":A3_0" function="internal">
        <lane id=":A3_0_0" index="0" speed="13.89" length="27.20" shape="-8.00,1513.60 -8.00,1486.40"/>
        <lane id=":A3_0_1" index="1" speed="13.89" length="27.20" shape="-4.80,1513.60 -4.80,1486.40"/>
        <lane id=":A3_0_2" index="2" speed="13.89" length="27.20" shape="-1.60,1513.60 -1.60,1486.40"/>
    </edge>
    <edge id=":A3_3" function="internal">
        <lane id=":A3_3_0" index="0" speed="10.88" length="27.14" shape="-1.60,1513.60 -0.65,1505.55 2.20,1499.80 6.95,1496.35 13.60,1495.20"/>
        <lane id=":A3_3_1" index="1" speed="10.36" length="24.51" shape="-1.60,1513.60 -0.65,1506.95 2.20,1502.20 6.95,1499.35 13.60,1498.40"/>
    </edge>
    <edge id=":A3_5" function="internal">
        <lane id=":A3_5_0" index="0" speed="6.51" length="9.03" shape="13.60,1508.00 11.15,1508.35 9.40,1509.40 8.35,1511.15 8.00,1513.60"/>
    </edge>
    <edge id=":A3_6" function="internal">
        <lane id=":A3_6_0" index="0" speed="11.36" length="29.67" shape="13.60,1504.80 5.55,1503.65 -0.20,1500.20 -3.65,1494.45 -4.80,1486.40"/>
        <lane id=":A3_6_1" index="1" speed="10.36" length="24.51" shape="13.60,1501.60 6.95,1500.65 2.20,1497.80 -0.65,1493.05 -1.60,1486.40"/>
    </edge>
    <edge id=":A3_8" function="internal">
        <lane id=":A3_8_0" index="0" speed="6.51" length="9.03" shape="8.00,1486.40 8.35,1488.85 9.40,1490.60 11.15,1491.65 13.60,1492.00"/>
    </edge>
    <edge id=":A3_9" function="internal">
        <lane id=":A3_9_0" index="0" speed="13.89" length="27.20" shape="8.00,1486.40 8.00,1513.60"/>
        <lane id=":A3_9_1" index="1" speed="13.89" length="27.20" shape="4.80,1486.40 4.80,1513.60"/>
        <lane id=":A3_9_2" index="2" speed="13.89" length="27.20" shape="1.60,1486.40 1.60,1513.60"/>
    </edge>
    <edge id=":A4_0" function="internal">
        <lane id=":A4_0_0" index="0" speed="11.12" length="28.38" shape="9.60,2008.00 1.90,2006.90 -3.60,2003.60 -6.90,1998.10 -8.00,1990.40"/>
        <lane id=":A4_0_1" index="1" speed="10.10" length="23.22" shape="9.60,2004.80 3.30,2003.90 -1.20,2001.20 -3.90,1996.70 -4.80,1990.40"/>
        <lane id=":A4_0_2" index="2" speed="8.96" length="18.06" shape="9.60,2001.60 4.70,2000.90 1.20,1998.80 -0.90,1995.30 -1.60,1990.40"/>
    </edge>
    <edge id=":A4_3" function="internal">
        <lane id=":A4_3_0" index="0" speed="3.90" length="2.58" shape="8.00,1990.40 8.10,1991.10 8.40,1991.60 8.90,1991.90 9.60,1992.00"/>
        <lane id=":A4_3_1" index="1" speed="6.08" length="7.74" shape="4.80,1990.40 5.10,1992.50 6.00,1994.00 7.50,1994.90 9.60,1995.20"/>
        <lane id=":A4_3_2" index="2" speed="7.66" length="12.90" shape="1.60,1990.40 2.10,1993.90 3.60,1996.40 6.10,1997.90 9.60,1998.40"/>
    </edge>
    <edge id=":B0_0" function="internal">
        <lane id=":B0_0_0" index="0" speed="6.51" length="9.03" shape="492.00,13.60 491.65,11.15 490.60,9.40 488.85,8.35 486.40,8.00"/>
    </edge>
    <edge id=":B0_1" function="internal">
        <lane id=":B0_1_0" index="0" speed="11.36" length="29.67" shape="495.20,13.60 496.35,5.55 499.80,-0.20 505.55,-3.65 513.60,-4.80"/>
        <lane id=":B0_1_1" index="1" speed="10.36" length="24.51" shape="498.40,13.60 499.35,6.95 502.20,2.20 506.95,-0.65 513.60,-1.60"/>
    </edge>
    <edge id=":B0_3" function="internal">
        <lane id=":B0_3_0" index="0" speed="6.51" length="9.03" shape="513.60,8.00 511.15,8.35 509.40,9.40 508.35,11.15 508.00,13.60"/>
    </edge>
    <edge id=":B0_4" function="internal">
        <lane id=":B0_4_0" index="0" speed="13.89" length="27.20" shape="513.60,8.00 486.40,8.00"/>
        <lane id=":B0_4_1" index="1" speed="13.89" length="27.20" shape="513.60,4.80 486.40,4.80"/>
        <lane id=":B0_4_2" index="2" speed="13.89" length="27.20" shape="513.60,1.60 486.40,1.60"/>
    </edge>
    <edge id=":B0_7" function="internal">
        <lane id=":B0_7_0" index="0" speed="13.89" length="27.20" shape="486.40,-8.00 513.60,-8.00"/>
        <lane id=":B0_7_1" index="1" speed="13.89" length="27.20" shape="486.40,-4.80 513.60,-4.80"/>
        <lane id=":B0_7_2" index="2" speed="13.89" length="27.20" shape="486.40,-1.60 513.60,-1.60"/>
    </edge>
    <edge id=":B0_10" function="internal">
        <lane id=":B0_10_0" index="0" speed="10.88" length="27.14" shape="486.40,-1.60 494.45,-0.65 500.20,2.20 503.65,6.95 504.80,13.60"/>
        <lane id=":B0_10_1" index="1" speed="10.36" length="24.51" shape="486.40,-1.60 493.05,-0.65 497.80,2.20 500.65,6.95 501.60,13.60"/>
    </edge>
    <edge id=":B1_0" function="internal">
        <lane id=":B1_0_0" index="0" speed="6.51" length="9.03" shape="492.00,513.60 491.65,511.15 490.60,509.40 488.85,508.35 486.40,508.00"/>
    </edge>
    <edge id=":B1_1" function="internal">
        <lane id=":B1_1_0" index="0" speed="13.89" length="27.20" shape="492.00,513.60 492.00,486.40"/>
        <lane id=":B1_1_1" index="1" speed="13.89" length="27.20" shape="495.20,513.60 495.20,486.40"/>
    </edge>
    <edge id=":B1_3" function="internal">
        <lane id=":B1_3_0" index="0" speed="10.36" length="24.51" shape="498.40,513.60 499.35,506.95 502.20,502.20 506.95,499.35 513.60,498.40"/>
    </edge>
    <edge id=":B1_4" function="internal">
        <lane id=":B1_4_0" index="0" speed="6.51" length="9.03" shape="513.60,508.00 511.15,508.35 509.40,509.40 508.35,511.15 508.00,513.60"/>
    </edge>
    <edge id=":B1_5" function="internal">
        <lane id=":B1_5_0" index="0" speed="13.89" length="27.20" shape="513.60,508.00 486.40,508.00"/>
        <lane id=":B1_5_1" index="1" speed="13.89" length="27.20" shape="513.60,504.80 486.40,504.80"/>
    </edge>
    <edge id=":B1_7" function="internal">
        <lane id=":B1_7_0" index="0" speed="10.36" length="24.51" shape="513.60,501.60 506.95,500.65 502.20,497.80 499.35,493.05 498.40,486.40"/>
    </edge>
    <edge id=":B1_8" function="internal">
        <lane id=":B1_8_0" index="0" speed="6.51" length="9.03" shape="508.00,486.40 508.35,488.85 509.40,490.60 511.15,491.65 513.60,492.00"/>
    </edge>
    <edge id=":B1_9" function="internal">
        <lane id=":B1_9_0" index="0" speed="13.89" length="27.20" shape="508.00,486.40 508.00,513.60"/>
        <lane id=":B1_9_1" index="1" speed="13.89" length="27.20" shape="504.80,486.40 504.80,513.60"/>
    </edge>
    <edge id=":B1_11" function="internal">
        <lane id=":B1_11_0" index="0" speed="10.36" length="24.51" shape="501.60,486.40 500.65,493.05 497.80,497.80 493.05,500.65 486.40,501.60"/>
    </edge>
    <edge id=":B1_12" function="internal">
        <lane id=":B1_12_0" index="0" speed="6.51" length="9.03" shape="486.40,492.00 488.85,491.65 490.60,490.60 491.65,488.85 492.00,486.40"/>
    </edge>
    <edge id=":B1_13" function="internal">
        <lane id=":B1_13_0" index="0" speed="13.89" length="27.20" shape="486.40,492.00 513.60,492.00"/>
        <lane id=":B1_13_1" index="1" speed="13.89" length="27.20" shape="486.40,495.20 513.60,495.20"/>
    </edge>
    <edge id=":B1_15" function="internal">
        <lane id=":B1_15_0" index="0" speed="10.36" length="24.51" shape="486.40,498.40 493.05,499.35 497.80,502.20 500.65,506.95 501.60,513.60"/>
    </edge>
    <edge id=":B2_0" function="internal">
        <lane id=":B2_0_0" index="0" speed="6.51" length="9.03" shape="492.00,1013.60 491.65,1011.15 490.60,1009.40 488.85,1008.35 486.40,1008.00"/>
    </edge>
    <edge id=":B2_1" function="internal">
        <lane id=":B2_1_0" index="0" speed="13.89" length="27.20" shape="492.00,1013.60 492.00,986.40"/>
        <lane id=":B2_1_1" index="1" speed="13.89" length="27.20" shape="495.20,1013.60 495.20,986.40"/>
    </edge>
    <edge id=":B2_3" function="internal">
        <lane id=":B2_3_0" index="0" speed="10.36" length="24.51" shape="498.40,1013.60 499.35,1006.95 502.20,1002.20 506.95,999.35 513.60,998.40"/>
    </edge>
    <edge id=":B2_4" function="internal">
        <lane id=":B2_4_0" index="0" speed="6.51" length="9.03" shape="513.60,1008.00 511.15,1008.35 509.40,1009.40 508.35,1011.15 508.00,1013.60"/>
    </edge>
    <edge id=":B2_5" function="internal">
        <lane id=":B2_5_0" index="0" speed="13.89" length="27.20" shape="513.60,1008.00 486.40,1008.00"/>
        <lane id=":B2_5_1" index="1" speed="13.89" length="27.20" shape="513.60,1004.80 486.40,1004.80"/>
    </edge>
    <edge id=":B2_7" function="internal">
        <lane id=":B2_7_0" index="0" speed="10.36" length="24.51" shape="513.60,1001.60 506.95,1000.65 502.20,997.80 499.35,993.05 498.40,986.40"/>
    </edge>
    <edge id=":B2_8" function="internal">
        <lane id=":B2_8_0" index="0" speed="6.51" length="9.03" shape="508.00,986.40 508.35,988.85 509.40,990.60 511.15,991.65 513.60,992.00"/>
    </edge>
    <edge id=":B2_9" function="internal">
        <lane id=":B2_9_0" index="0" speed="13.89" length="27.20" shape="508.00,986.40 508.00,1013.60"/>
        <lane id=":B2_9_1" index="1" speed="13.89" length="27.20" shape="504.80,986.40 504.80,1013.60"/>
    </edge>
    <edge id=":B2_11" function="internal">
        <lane id=":B2_11_0" index="0" speed="10.36" length="24.51" shape="501.60,986.40 500.65,993.05 497.80,997.80 493.05,1000.65 486.40,1001.60"/>
    </edge>
    <edge id=":B2_12" function="internal">
        <lane id=":B2_12_0" index="0" speed="6.51" length="9.03" shape="486.40,992.00 488.85,991.65 490.60,990.60 491.65,988.85 492.00,986.40"/>
    </edge>
    <edge id=":B2_13" function="internal">
        <lane id=":B2_13_0" index="0" speed="13.89" length="27.20" shape="486.40,992.00 513.60,992.00"/>
        <lane id=":B2_13_1" index="1" speed="13.89" length="27.20" shape="486.40,995.20 513.60,995.20"/>
    </edge>
    <edge id=":B2_15" function="internal">
        <lane id=":B2_15_0" index="0" speed="10.36" length="24.51" shape="486.40,998.40 493.05,999.35 497.80,1002.20 500.65,1006.95 501.60,1013.60"/>
    </edge>
    <edge id=":B3_0" function="internal">
        <lane id=":B3_0_0" index="0" speed="6.51" length="9.03" shape="492.00,1513.60 491.65,1511.15 490.60,1509.40 488.85,1508.35 486.40,1508.00"/>
    </edge>
    <edge id=":B3_1" function="internal">
        <lane id=":B3_1_0" index="0" speed="13.89" length="27.20" shape="492.00,1513.60 492.00,1486.40"/>
        <lane id=":B3_1_1" index="1" speed="13.89" length="27.20" shape="495.20,1513.60 495.20,1486.40"/>
    </edge>
    <edge id=":B3_3" function="internal">
        <lane id=":B3_3_0" index="0" speed="10.36" length="24.51" shape="498.40,1513.60 499.35,1506.95 502.20,1502.20 506.95,1499.35 513.60,1498.40"/>
    </edge>
    <edge id=":B3_4" function="internal">
        <lane id=":B3_4_0" index="0" speed="6.51" length="9.03" shape="513.60,1508.00 511.15,1508.35 509.40,1509.40 508.35,1511.15 508.00,1513.60"/>
    </edge>
    <edge id=":B3_5" function="internal">
        <lane id=":B3_5_0" index="0" speed="13.89" length="27.20" shape="513.60,1508.00 486.40,1508.00"/>
        <lane id=":B3_5_1" index="1" speed="13.89" length="27.20" shape="513.60,1504.80 486.40,1504.80"/>
    </edge>
    <edge id=":B3_7" function="internal">
        <lane id=":B3_7_0" index="0" speed="10.36" length="24.51" shape="513.60,1501.60 506.95,1500.65 502.20,1497.80 499.35,1493.05 498.40,1486.40"/>
    </edge>
    <edge id=":B3_8" function="internal">
        <lane id=":B3_8_0" index="0" speed="6.51" length="9.03" shape="508.00,1486.40 508.35,1488.85 509.40,1490.60 511.15,1491.65 513.60,1492.00"/>
    </edge>
    <edge id=":B3_9" function="internal">
        <lane id=":B3_9_0" index="0" speed="13.89" length="27.20" shape="508.00,1486.40 508.00,1513.60"/>
        <lane id=":B3_9_1" index="1" speed="13.89" length="27.20" shape="504.80,1486.40 504.80,1513.60"/>
    </edge>
    <edge id=":B3_11" function="internal">
        <lane id=":B3_11_0" index="0" speed="10.36" length="24.51" shape="501.60,1486.40 500.65,1493.05 497.80,1497.80 493.05,1500.65 486.40,1501.60"/>
    </edge>
    <edge id=":B3_12" function="internal">
        <lane id=":B3_12_0" index="0" speed="6.51" length="9.03" shape="486.40,1492.00 488.85,1491.65 490.60,1490.60 491.65,1488.85 492.00,1486.40"/>
    </edge>
    <edge id=":B3_13" function="internal">
        <lane id=":B3_13_0" index="0" speed="13.89" length="27.20" shape="486.40,1492.00 513.60,1492.00"/>
        <lane id=":B3_13_1" index="1" speed="13.89" length="27.20" shape="486.40,1495.20 513.60,1495.20"/>
    </edge>
    <edge id=":B3_15" function="internal">
        <lane id=":B3_15_0" index="0" speed="10.36" length="24.51" shape="486.40,1498.40 493.05,1499.35 497.80,1502.20 500.65,1506.95 501.60,1513.60"/>
    </edge>
    <edge id=":B4_0" function="internal">
        <lane id=":B4_0_0" index="0" speed="13.89" length="27.20" shape="513.60,2008.00 486.40,2008.00"/>
        <lane id=":B4_0_1" index="1" speed="13.89" length="27.20" shape="513.60,2004.80 486.40,2004.80"/>
        <lane id=":B4_0_2" index="2" speed="13.89" length="27.20" shape="513.60,2001.60 486.40,2001.60"/>
    </edge>
    <edge id=":B4_3" function="internal">
        <lane id=":B4_3_0" index="0" speed="10.88" length="27.14" shape="513.60,2001.60 505.55,2000.65 499.80,1997.80 496.35,1993.05 495.20,1986.40"/>
        <lane id=":B4_3_1" index="1" speed="10.36" length="24.51" shape="513.60,2001.60 506.95,2000.65 502.20,1997.80 499.35,1993.05 498.40,1986.40"/>
    </edge>
    <edge id=":B4_5" function="internal">
        <lane id=":B4_5_0" index="0" speed="6.51" length="9.03" shape="508.00,1986.40 508.35,1988.85 509.40,1990.60 511.15,1991.65 513.60,1992.00"/>
    </edge>
    <edge id=":B4_6" function="internal">
        <lane id=":B4_6_0" index="0" speed="11.36" length="29.67" shape="504.80,1986.40 503.65,1994.45 500.20,2000.20 494.45,2003.65 486.40,2004.80"/>
        <lane id=":B4_6_1" index="1" speed="10.36" length="24.51" shape="501.60,1986.40 500.65,1993.05 497.80,1997.80 493.05,2000.65 486.40,2001.60"/>
    </edge>
    <edge id=":B4_8" function="internal">
        <lane id=":B4_8_0" index="0" speed="6.51" length="9.03" shape="486.40,1992.00 488.85,1991.65 490.60,1990.60 491.65,1988.85 492.00,1986.40"/>
    </edge>
    <edge id=":B4_9" function="internal">
        <lane id=":B4_9_0" index="0" speed="13.89" length="27.20" shape="486.40,1992.00 513.60,1992.00"/>
        <lane id=":B4_9_1" index="1" speed="13.89" length="27.20" shape="486.40,1995.20 513.60,1995.20"/>
        <lane id=":B4_9_2" index="2" speed="13.89" length="27.20" shape="486.40,1998.40 513.60,1998.40"/>
    </edge>
    <edge id=":C0_0" function="internal">
        <lane id=":C0_0_0" index="0" speed="6.51" length="9.03" shape="992.00,13.60 991.65,11.15 990.60,9.40 988.85,8.35 986.40,8.00"/>
    </edge>
    <edge id=":C0_1" function="internal">
        <lane id=":C0_1_0" index="0" speed="11.36" length="29.67" shape="995.20,13.60 996.35,5.55 999.80,-0.20 1005.55,-3.65 1013.60,-4.80"/>
        <lane id=":C0_1_1" index="1" speed="10.36" length="24.51" shape="998.40,13.60 999.35,6.95 1002.20,2.20 1006.95,-0.65 1013.60,-1.60"/>
    </edge>
    <edge id=":C0_3" function="internal">
        <lane id=":C0_3_0" index="0" speed="6.51" length="9.03" shape="1013.60,8.00 1011.15,8.35 1009.40,9.40 1008.35,11.15 1008.00,13.60"/>
    </edge>
    <edge id=":C0_4" function="internal">
        <lane id=":C0_4_0" index="0" speed="13.89" length="27.20" shape="1013.60,8.00 986.40,8.00"/>
        <lane id=":C0_4_1" index="1" speed="13.89" length="27.20" shape="1013.60,4.80 986.40,4.80"/>
        <lane id=":C0_4_2" index="2" speed="13.89" length="27.20" shape="1013.60,1.60 986.40,1.60"/>
    </edge>
    <edge id=":C0_7" function="internal">
        <lane id=":C0_7_0" index="0" speed="13.89" length="27.20" shape="986.40,-8.00 1013.60,-8.00"/>
        <lane id=":C0_7_1" index="1" speed="13.89" length="27.20" shape="986.40,-4.80 1013.60,-4.80"/>
        <lane id=":C0_7_2" index="2" speed="13.89" length="27.20" shape="986.40,-1.60 1013.60,-1.60"/>
    </edge>
    <edge id=":C0_10" function="internal">
        <lane id=":C0_10_0" index="0" speed="10.88" length="27.14" shape="986.40,-1.60 994.45,-0.65 1000.20,2.20 1003.65,6.95 1004.80,13.60"/>
        <lane id=":C0_10_1" index="1" speed="10.36" length="24.51" shape="986.40,-1.60 993.05,-0.65 997.80,2.20 1000.65,6.95 1001.60,13.60"/>
    </edge>
    <edge id=":C1_0" function="internal">
        <lane id=":C1_0_0" index="0" speed="6.51" length="9.03" shape="992.00,513.60 991.65,511.15 990.60,509.40 988.85,508.35 986.40,508.00"/>
    </edge>
    <edge id=":C1_1" function="internal">
        <lane id=":C1_1_0" index="0" speed="13.89" length="27.20" shape="992.00,513.60 992.00,486.40"/>
        <lane id=":C1_1_1" index="1" speed="13.89" length="27.20" shape="995.20,513.60 995.20,486.40"/>
    </edge>
    <edge id=":C1_3" function="internal">
        <lane id=":C1_3_0" index="0" speed="10.36" length="24.51" shape="998.40,513.60 999.35,506.95 1002.20,502.20 1006.95,499.35 1013.60,498.40"/>
    </edge>
    <edge id=":C1_4" function="internal">
        <lane id=":C1_4_0" index="0" speed="6.51" length="9.03" shape="1013.60,508.00 1011.15,508.35 1009.40,509.40 1008.35,511.15 1008.00,513.60"/>
    </edge>
    <edge id=":C1_5" function="internal">
        <lane id=":C1_5_0" index="0" speed="13.89" length="27.20" shape="1013.60,508.00 986.40,508.00"/>
        <lane id=":C1_5_1" index="1" speed="13.89" length="27.20" shape="1013.60,504.80 986.40,504.80"/>
    </edge>
    <edge id=":C1_7" function="internal">
        <lane id=":C1_7_0" index="0" speed="10.36" length="24.51" shape="1013.60,501.60 1006.95,500.65 1002.20,497.80 999.35,493.05 998.40,486.40"/>
    </edge>
    <edge id=":C1_8" function="internal">
        <lane id=":C1_8_0" index="0" speed="6.51" length="9.03" shape="1008.00,486.40 1008.35,488.85 1009.40,490.60 1011.15,491.65 1013.60,492.00"/>
    </edge>
    <edge id=":C1_9" function="internal">
        <lane id=":C1_9_0" index="0" speed="13.89" length="27.20" shape="1008.00,486.40 1008.00,513.60"/>
        <lane id=":C1_9_1" index="1" speed="13.89" length="27.20" shape="1004.80,486.40 1004.80,513.60"/>
    </edge>
    <edge id=":C1_11" function="internal">
        <lane id=":C1_11_0" index="0" speed="10.36" length="24.51" shape="1001.60,486.40 1000.65,493.05 997.80,497.80 993.05,500.65 986.40,501.60"/>
    </edge>
    <edge id=":C1_12" function="internal">
        <lane id=":C1_12_0" index="0" speed="6.51" length="9.03" shape="986.40,492.00 988.85,491.65 990.60,490.60 991.65,488.85 992.00,486.40"/>
    </edge>
    <edge id=":C1_13" function="internal">
        <lane id=":C1_13_0" index="0" speed="13.89" length="27.20" shape="986.40,492.00 1013.60,492.00"/>
        <lane id=":C1_13_1" index="1" speed="13.89" length="27.20" shape="986.40,495.20 1013.60,495.20"/>
    </edge>
    <edge id=":C1_15" function="internal">
        <lane id=":C1_15_0" index="0" speed="10.36" length="24.51" shape="986.40,498.40 993.05,499.35 997.80,502.20 1000.65,506.95 1001.60,513.60"/>
    </edge>
    <edge id=":C2_0" function="internal">
        <lane id=":C2_0_0" index="0" speed="6.51" length="9.03" shape="992.00,1013.60 991.65,1011.15 990.60,1009.40 988.85,1008.35 986.40,1008.00"/>
    </edge>
    <edge id=":C2_1" function="internal">
        <lane id=":C2_1_0" index="0" speed="13.89" length="27.20" shape="992.00,1013.60 992.00,986.40"/>
        <lane id=":C2_1_1" index="1" speed="13.89" length="27.20" shape="995.20,1013.60 995.20,986.40"/>
    </edge>
    <edge id=":C2_3" function="internal">
        <lane id=":C2_3_0" index="0" speed="10.36" length="24.51" shape="998.40,1013.60 999.35,1006.95 1002.20,1002.20 1006.95,999.35 1013.60,998.40"/>
    </edge>
    <edge id=":C2_4" function="internal">
        <lane id=":C2_4_0" index="0" speed="6.51" length="9.03" shape="1013.60,1008.00 1011.15,1008.35 1009.40,1009.40 1008.35,1011.15 1008.00,1013.60"/>
    </edge>
    <edge id=":C2_5" function="internal">
        <lane id=":C2_5_0" index="0" speed="13.89" length="27.20" shape="1013.60,1008.00 986.40,1008.00"/>
        <lane id=":C2_5_1" index="1" speed="13.89" length="27.20" shape="1013.60,1004.80 986.40,1004.80"/>
    </edge>
    <edge id=":C2_7" function="internal">
        <lane id=":C2_7_0" index="0" speed="10.36" length="24.51" shape="1013.60,1001.60 1006.95,1000.65 1002.20,997.80 999.35,993.05 998.40,986.40"/>
    </edge>
    <edge id=":C2_8" function="internal">
        <lane id=":C2_8_0" index="0" speed="6.51" length="9.03" shape="1008.00,986.40 1008.35,988.85 1009.40,990.60 1011.15,991.65 1013.60,992.00"/>
    </edge>
    <edge id=":C2_9" function="internal">
        <lane id=":C2_9_0" index="0" speed="13.89" length="27.20" shape="1008.00,986.40 1008.00,1013.60"/>
        <lane id=":C2_9_1" index="1" speed="13.89" length="27.20" shape="1004.80,986.40 1004.80,1013.60"/>
    </edge>
    <edge id=":C2_11" function="internal">
        <lane id=":C2_11_0" index="0" speed="10.36" length="24.51" shape="1001.60,986.40 1000.65,993.05 997.80,997.80 993.05,1000.65 986.40,1001.60"/>
    </edge>
    <edge id=":C2_12" function="internal">
        <lane id=":C2_12_0" index="0" speed="6.51" length="9.03" shape="986.40,992.00 988.85,991.65 990.60,990.60 991.65,988.85 992.00,986.40"/>
    </edge>
    <edge id=":C2_13" function="internal">
        <lane id=":C2_13_0" index="0" speed="13.89" length="27.20" shape="986.40,992.00 1013.60,992.00"/>
        <lane id=":C2_13_1" index="1" speed="13.89" length="27.20" shape="986.40,995.20 1013.60,995.20"/>
    </edge>
    <edge id=":C2_15" function="internal">
        <lane id=":C2_15_0" index="0" speed="10.36" length="24.51" shape="986.40,998.40 993.05,999.35 997.80,1002.20 1000.65,1006.95 1001.60,1013.60"/>
    </edge>
    <edge id=":C3_0" function="internal">
        <lane id=":C3_0_0" index="0" speed="6.51" length="9.03" shape="992.00,1513.60 991.65,1511.15 990.60,1509.40 988.85,1508.35 986.40,1508.00"/>
    </edge>
    <edge id=":C3_1" function="internal">
        <lane id=":C3_1_0" index="0" speed="13.89" length="27.20" shape="992.00,1513.60 992.00,1486.40"/>
        <lane id=":C3_1_1" index="1" speed="13.89" length="27.20" shape="995.20,1513.60 995.20,1486.40"/>
    </edge>
    <edge id=":C3_3" function="internal">
        <lane id=":C3_3_0" index="0" speed="10.36" length="24.51" shape="998.40,1513.60 999.35,1506.95 1002.20,1502.20 1006.95,1499.35 1013.60,1498.40"/>
    </edge>
    <edge id=":C3_4" function="internal">
        <lane id=":C3_4_0" index="0" speed="6.51" length="9.03" shape="1013.60,1508.00 1011.15,1508.35 1009.40,1509.40 1008.35,1511.15 1008.00,1513.60"/>
    </edge>
    <edge id=":C3_5" function="internal">
        <lane id=":C3_5_0" index="0" speed="13.89" length="27.20" shape="1013.60,1508.00 986.40,1508.00"/>
        <lane id=":C3_5_1" index="1" speed="13.89" length="27.20" shape="1013.60,1504.80 986.40,1504.80"/>
    </edge>
    <edge id=":C3_7" function="internal">
        <lane id=":C3_7_0" index="0" speed="10.36" length="24.51" shape="1013.60,1501.60 1006.95,1500.65 1002.20,1497.80 999.35,1493.05 998.40,1486.40"/>
    </edge>
    <edge id=":C3_8" function="internal">
        <lane id=":C3_8_0" index="0" speed="6.51" length="9.03" shape="1008.00,1486.40 1008.35,1488.85 1009.40,1490.60 1011.15,1491.65 1013.60,1492.00"/>
    </edge>
    <edge id=":C3_9" function="internal">
        <lane id=":C3_9_0" index="0" speed="13.89" length="27.20" shape="1008.00,1486.40 1008.00,1513.60"/>
        <lane id=":C3_9_1" index="1" speed="13.89" length="27.20" shape="1004.80,1486.40 1004.80,1513.60"/>
    </edge>
    <edge id=":C3_11" function="internal">
        <lane id=":C3_11_0" index="0" speed="10.36" length="24.51" shape="1001.60,1486.40 1000.65,1493.05 997.80,1497.80 993.05,1500.65 986.40,1501.60"/>
    </edge>
    <edge id=":C3_12" function="internal">
        <lane id=":C3_12_0" index="0" speed="6.51" length="9.03" shape="986.40,1492.00 988.85,1491.65 990.60,1490.60 991.65,1488.85 992.00,1486.40"/>
    </edge>
    <edge id=":C3_13" function="internal">