<additional>
    <edgeData id="edgeDataMeasurement" file="outputs/edgeData.xml" period="20"/>
</additional>