<?xml version="1.0" ?>
<additional>
  <inductionLoop id="detectorA0A1_0" lane="A0A1_0" pos="400" file="outputs/detectorsOut.xml" period="20"/>
  <inductionLoop id="detectorA0A1_1" lane="A0A1_1" pos="400" file="outputs/detectorsOut.xml" period="20"/>
  <inductionLoop id="detectorA0A1_2" lane="A0A1_2" pos="400" file="outputs/detectorsOut.xml" period="20"/>
  <inductionLoop id="detectorA0B0_0" lane="A0B0_0" pos="400" file="outputs/detectorsOut.xml" period="20"/>
  <inductionLoop id="detectorA0B0_1" lane="A0B0_1" pos="400" file="outputs/detectorsOut.xml" period="20"/>
  <inductionLoop id="detectorA0B0_2" lane="A0B0_2" pos="400" file="outputs/detectorsOut.xml" period="20"/>
  <inductionLoop id="detectorA1A0_0" lane="A1A0_0" pos="400" file="outputs/detectorsOut.xml" period="20"/>
  <inductionLoop id="detectorA1A0_1" lane="A1A0_1" pos="400" file="outputs/detectorsOut.xml" period="20"/>
  <inductionLoop id="detectorA1A0_2" lane="A1A0_2" pos="400" file="outputs/detectorsOut.xml" period="20"/>
  <inductionLoop id="detectorA1A2_0" lane="A1A2_0" pos="400" file="outputs/detectorsOut.xml" period="20"/>
  <inductionLoop id="detectorA1A2_1" lane="A1A2_1" pos="400" file="outputs/detectorsOut.xml" period="20"/>
  <inductionLoop id="detectorA1A2_2" lane="A1A2_2" pos="400" file="outputs/detectorsOut.xml" period="20"/>
  <inductionLoop id="detectorA1B1_0" lane="A1B1_0" pos="400" file="outputs/detectorsOut.xml" period="20"/>
  <inductionLoop id="detectorA1B1_1" lane="A1B1_1" pos="400" file="outputs/detectorsOut.xml" period="20"/>
  <inductionLoop id="detectorA1B1_2" lane="A1B1_2" pos="400" file="outputs/detectorsOut.xml" period="20"/>
  <inductionLoop id="detectorA2A1_0" lane="A2A1_0" pos="400" file="outputs/detectorsOut.xml" period="20"/>
  <inductionLoop id="detectorA2A1_1" lane="A2A1_1" pos="400" file="outputs/detectorsOut.xml" period="20"/>
  <inductionLoop id="detectorA2A1_2" lane="A2A1_2" pos="400" file="outputs/detectorsOut.xml" period="20"/>
  <inductionLoop id="detectorA2A3_0" lane="A2A3_0" pos="400" file="outputs/detectorsOut.xml" period="20"/>
  <inductionLoop id="detectorA2A3_1" lane="A2A3_1" pos="400" file="outputs/detectorsOut.xml" period="20"/>
  <inductionLoop id="detectorA2A3_2" lane="A2A3_2" pos="400" file="outputs/detectorsOut.xml" period="20"/>
  <inductionLoop id="detectorA2B2_0" lane="A2B2_0" pos="400" file="outputs/detectorsOut.xml" period="20"/>
  <inductionLoop id="detectorA2B2_1" lane="A2B2_1" pos="400" file="outputs/detectorsOut.xml" period="20"/>
  <inductionLoop id="detectorA2B2_2" lane="A2B2_2" pos="400" file="outputs/detectorsOut.xml" period="20"/>
  <inductionLoop id="detectorA3A2_0" lane="A3A2_0" pos="400" file="outputs/detectorsOut.xml" period="20"/>
  <inductionLoop id="detectorA3A2_1" lane="A3A2_1" pos="400" file="outputs/detectorsOut.xml" period="20"/>
  <inductionLoop id="detectorA3A2_2" lane="A3A2_2" pos="400" file="outputs/detectorsOut.xml" period="20"/>
  <inductionLoop id="detectorA3A4_0" lane="A3A4_0" pos="400" file="outputs/detectorsOut.xml" period="20"/>
  <inductionLoop id="detectorA3A4_1" lane="A3A4_1" pos="400" file="outputs/detectorsOut.xml" period="20"/>
  <inductionLoop id="detectorA3A4_2" lane="A3A4_2" pos="400" file="outputs/detectorsOut.xml" period="20"/>
  <inductionLoop id="detectorA3B3_0" lane="A3B3_0" pos="400" file="outputs/detectorsOut.xml" period="20"/>
  <inductionLoop id="detectorA3B3_1" lane="A3B3_1" pos="400" file="outputs/detectorsOut.xml" period="20"/>
  <inductionLoop id="detectorA3B3_2" lane="A3B3_2" pos="400" file="outputs/detectorsOut.xml" period="20"/>
  <inductionLoop id="detectorA4A3_0" lane="A4A3_0" pos="400" file="outputs/detectorsOut.xml" period="20"/>
  <inductionLoop id="detectorA4A3_1" lane="A4A3_1" pos="400" file="outputs/detectorsOut.xml" period="20"/>
  <inductionLoop id="detectorA4A3_2" lane="A4A3_2" pos="400" file="outputs/detectorsOut.xml" period="20"/>
  <inductionLoop id="detectorA4B4_0" lane="A4B4_0" pos="400" file="outputs/detectorsOut.xml" period="20"/>
  <inductionLoop id="detectorA4B4_1" lane="A4B4_1" pos="400" file="outputs/detectorsOut.xml" period="20"/>
  <inductionLoop id="detectorA4B4_2" lane="A4B4_2" pos="400" file="outputs/detectorsOut.xml" period="20"/>
  <inductionLoop id="detectorB0A0_0" lane="B0A0_0" pos="400" file="outputs/detectorsOut.xml" period="20"/>
  <inductionLoop id="detectorB0A0_1" lane="B0A0_1" pos="400" file="outputs/detectorsOut.xml" period="20"/>
  <inductionLoop id="detectorB0A0_2" lane="B0A0_2" pos="400" file="outputs/detectorsOut.xml" period="20"/>
  <inductionLoop id="detectorB0B1_0" lane="B0B1_0" pos="400" file="outputs/detectorsOut.xml" period="20"/>
  <inductionLoop id="detectorB0B1_1" lane="B0B1_1" pos="400" file="outputs/detectorsOut.xml" period="20"/>
  <inductionLoop id="detectorB0B1_2" lane="B0B1_2" pos="400" file="outputs/detectorsOut.xml" period="20"/>
  <inductionLoop id="detectorB0C0_0" lane="B0C0_0" pos="400" file="outputs/detectorsOut.xml" period="20"/>
  <inductionLoop id="detectorB0C0_1" lane="B0C0_1" pos="400" file="outputs/detectorsOut.xml" period="20"/>
  <inductionLoop id="detectorB0C0_2" lane="B0C0_2" pos="400" file="outputs/detectorsOut.xml" period="20"/>
  <inductionLoop id="detectorB1A1_0" lane="B1A1_0" pos="400" file="outputs/detectorsOut.xml" period="20"/>
  <inductionLoop id="detectorB1A1_1" lane="B1A1_1" pos="400" file="outputs/detectorsOut.xml" period="20"/>
  <inductionLoop id="detectorB1A1_2" lane="B1A1_2" pos="400" file="outputs/detectorsOut.xml" period="20"/>
  <inductionLoop id="detectorB1B0_0" lane="B1B0_0" pos="400" file="outputs/detectorsOut.xml" period="20"/>
  <inductionLoop id="detectorB1B0_1" lane="B1B0_1" pos="400" file="outputs/detectorsOut.xml" period="20"/>
  <inductionLoop id="detectorB1B0_2" lane="B1B0_2" pos="400" file="outputs/detectorsOut.xml" period="20"/>
  <inductionLoop id="detectorB1B2_0" lane="B1B2_0" pos="400" file="outputs/detectorsOut.xml" period="20"/>
  <inductionLoop id="detectorB1B2_1" lane="B1B2_1" pos="400" file="outputs/detectorsOut.xml" period="20"/>
  <inductionLoop id="detectorB1B2_2" lane="B1B2_2" pos="400" file="outputs/detectorsOut.xml" period="20"/>
  <inductionLoop id="detectorB1C1_0" lane="B1C1_0" pos="400" file="outputs/detectorsOut.xml" period="20"/>
  <inductionLoop id="detectorB1C1_1" lane="B1C1_1" pos="400" file="outputs/detectorsOut.xml" period="20"/>
  <inductionLoop id="detectorB1C1_2" lane="B1C1_2" pos="400" file="outputs/detectorsOut.xml" period="20"/>
  <inductionLoop id="detectorB2A2_0" lane="B2A2_0" pos="400" file="outputs/detectorsOut.xml" period="20"/>
  <inductionLoop id="detectorB2A2_1" lane="B2A2_1" pos="400" file="outputs/detectorsOut.xml" period="20"/>
  <inductionLoop id="detectorB2A2_2" lane="B2A2_2" pos="400" file="outputs/detectorsOut.xml" period="20"/>
  <inductionLoop id="detectorB2B1_0" lane="B2B1_0" pos="400" file="outputs/detectorsOut.xml" period="20"/>
  <inductionLoop id="detectorB2B1_1" lane="B2B1_1" pos="400" file="outputs/detectorsOut.xml" period="20"/>
  <inductionLoop id="detectorB2B1_2" lane="B2B1_2" pos="400" file="outputs/detectorsOut.xml" period="20"/>
  <inductionLoop id="detectorB2B3_0" lane="B2B3_0" pos="400" file="outputs/detectorsOut.xml" period="20"/>
  <inductionLoop id="detectorB2B3_1" lane="B2B3_1" pos="400" file="outputs/detectorsOut.xml" period="20"/>
  <inductionLoop id="detectorB2B3_2" lane="B2B3_2" pos="400" file="outputs/detectorsOut.xml" period="20"/>
  <inductionLoop id="detectorB2C2_0" lane="B2C2_0" pos="400" file="outputs/detectorsOut.xml" period="20"/>
  <inductionLoop id="detectorB2C2_1" lane="B2C2_1" pos="400" file="outputs/detectorsOut.xml" period="20"/>
  <inductionLoop id="detectorB2C2_2" lane="B2C2_2" pos="400" file="outputs/detectorsOut.xml" period="20"/>
  <inductionLoop id="detectorB3A3_0" lane="B3A3_0" pos="400" file="outputs/detectorsOut.xml" period="20"/>
  <inductionLoop id="detectorB3A3_1" lane="B3A3_1" pos="400" file="outputs/detectorsOut.xml" period="20"/>
  <inductionLoop id="detectorB3A3_2" lane="B3A3_2" pos="400" file="outputs/detectorsOut.xml" period="20"/>
  <inductionLoop id="detectorB3B2_0" lane="B3B2_0" pos="400" file="outputs/detectorsOut.xml" period="20"/>
  <inductionLoop id="detectorB3B2_1" lane="B3B2_1" pos="400" file="outputs/detectorsOut.xml" period="20"/>
  <inductionLoop id="detectorB3B2_2" lane="B3B2_2" pos="400" file="outputs/detectorsOut.xml" period="20"/>
  <inductionLoop id="detectorB3B4_0" lane="B3B4_0" pos="400" file="outputs/detectorsOut.xml" period="20"/>
  <inductionLoop id="detectorB3B4_1" lane="B3B4_1" pos="400" file="outputs/detectorsOut.xml" period="20"/>
  <inductionLoop id="detectorB3B4_2" lane="B3B4_2" pos="400" file="outputs/detectorsOut.xml" period="20"/>
  <inductionLoop id="detectorB3C3_0" lane="B3C3_0" pos="400" file="outputs/detectorsOut.xml" period="20"/>
  <inductionLoop id="detectorB3C3_1" lane="B3C3_1" pos="400" file="outputs/detectorsOut.xml" period="20"/>
  <inductionLoop id="detectorB3C3_2" lane="B3C3_2" pos="400" file="outputs/detectorsOut.xml" period="20"/>
  <inductionLoop id="detectorB4A4_0" lane="B4A4_0" pos="400" file="outputs/detectorsOut.xml" period="20"/>
  <inductionLoop id="detectorB4A4_1" lane="B4A4_1" pos="400" file="outputs/detectorsOut.xml" period="20"/>
  <inductionLoop id="detectorB4A4_2" lane="B4A4_2" pos="400" file="outputs/detectorsOut.xml" period="20"/>
  <inductionLoop id="detectorB4B3_0" lane="B4B3_0" pos="400" file="outputs/detectorsOut.xml" period="20"/>
  <inductionLoop id="detectorB4B3_1" lane="B4B3_1" pos="400" file="outputs/detectorsOut.xml" period="20"/>
  <inductionLoop id="detectorB4B3_2" lane="B4B3_2" pos="400" file="outputs/detectorsOut.xml" period="20"/>
  <inductionLoop id="detectorB4C4_0" lane="B4C4_0" pos="400" file="outputs/detectorsOut.xml" period="20"/>
  <inductionLoop id="detectorB4C4_1" lane="B4C4_1" pos="400" file="outputs/detectorsOut.xml" period="20"/>
  <inductionLoop id="detectorB4C4_2" lane="B4C4_2" pos="400" file="outputs/detectorsOut.xml" period="20"/>
  <inductionLoop id="detectorC0B0_0" lane="C0B0_0" pos="400" file="outputs/detectorsOut.xml" period="20"/>
  <inductionLoop id="detectorC0B0_1" lane="C0B0_1" pos="400" file="outputs/detectorsOut.xml" period="20"/>
  <inductionLoop id="detectorC0B0_2" lane="C0B0_2" pos="400" file="outputs/detectorsOut.xml" period="20"/>
  <inductionLoop id="detectorC0C1_0" lane="C0C1_0" pos="400" file="outputs/detectorsOut.xml" period="20"/>
  <inductionLoop id="detectorC0C1_1" lane="C0C1_1" pos="400" file="outputs/detectorsOut.xml" period="20"/>
  <inductionLoop id="detectorC0C1_2" lane="C0C1_2" pos="400" file="outputs/detectorsOut.xml" period="20"/>
  <inductionLoop id="detectorC0D0_0" lane="C0D0_0" pos="400" file="outputs/detectorsOut.xml" period="20"/>
  <inductionLoop id="detectorC0D0_1" lane="C0D0_1" pos="400" file="outputs/detectorsOut.xml" period="20"/>
  <inductionLoop id="detectorC0D0_2" lane="C0D0_2" pos="400" file="outputs/detectorsOut.xml" period="20"/>
  <inductionLoop id="detectorC1B1_0" lane="C1B1_0" pos="400" file="outputs/detectorsOut.xml" period="20"/>
  <inductionLoop id="detectorC1B1_1" lane="C1B1_1" pos="400" file="outputs/detectorsOut.xml" period="20"/>
  <inductionLoop id="detectorC1B1_2" lane="C1B1_2" pos="400" file="outputs/detectorsOut.xml" period="20"/>
  <inductionLoop id="detectorC1C0_0" lane="C1C0_0" pos="400" file="outputs/detectorsOut.xml" period="20"/>
  <inductionLoop id="detectorC1C0_1" lane="C1C0_1" pos="400" file="outputs/detectorsOut.xml" period="20"/>
  <inductionLoop id="detectorC1C0_2" lane="C1C0_2" pos="400" file="outputs/detectorsOut.xml" period="20"/>
  <inductionLoop id="detectorC1C2_0" lane="C1C2_0" pos="400" file="outputs/detectorsOut.xml" period="20"/>
  <inductionLoop id="detectorC1C2_1" lane="C1C2_1" pos="400" file="outputs/detectorsOut.xml" period="20"/>
  <inductionLoop id="detectorC1C2_2" lane="C1C2_2" pos="400" file="outputs/detectorsOut.xml" period="20"/>
  <inductionLoop id="detectorC1D1_0" lane="C1D1_0" pos="400" file="outputs/detectorsOut.xml" period="20"/>
  <inductionLoop id="detectorC1D1_1" lane="C1D1_1" pos="400" file="outputs/detectorsOut.xml" period="20"/>
  <inductionLoop id="detectorC1D1_2" lane="C1D1_2" pos="400" file="outputs/detectorsOut.xml" period="20"/>
  <inductionLoop id="detectorC2B2_0" lane="C2B2_0" pos="400" file="outputs/detectorsOut.xml" period="20"/>
  <inductionLoop id="detectorC2B2_1" lane="C2B2_1" pos="400" file="outputs/detectorsOut.xml" period="20"/>
  <inductionLoop id="detectorC2B2_2" lane="C2B2_2" pos="400" file="outputs/detectorsOut.xml" period="20"/>
  <inductionLoop id="detectorC2C1_0" lane="C2C1_0" pos="400" file="outputs/detectorsOut.xml" period="20"/>
  <inductionLoop id="detectorC2C1_1" lane="C2C1_1" pos="400" file="outputs/detectorsOut.xml" period="20"/>
  <inductionLoop id="detectorC2C1_2" lane="C2C1_2" pos="400" file="outputs/detectorsOut.xml" period="20"/>
  <inductionLoop id="detectorC2C3_0" lane="C2C3_0" pos="400" file="outputs/detectorsOut.xml" period="20"/>
  <inductionLoop id="detectorC2C3_1" lane="C2C3_1" pos="400" file="outputs/detectorsOut.xml" period="20"/>
  <inductionLoop id="detectorC2C3_2" lane="C2C3_2" pos="400" file="outputs/detectorsOut.xml" period="20"/>
  <inductionLoop id="detectorC2D2_0" lane="C2D2_0" pos="400" file="outputs/detectorsOut.xml" period="20"/>
  <inductionLoop id="detectorC2D2_1" lane="C2D2_1" pos="400" file="outputs/detectorsOut.xml" period="20"/>
  <inductionLoop id="detectorC2D2_2" lane="C2D2_2" pos="400" file="outputs/detectorsOut.xml" period="20"/>
  <inductionLoop id="detectorC3B3_0" lane="C3B3_0" pos="400" file="outputs/detectorsOut.xml" period="20"/>
  <inductionLoop id="detectorC3B3_1" lane="C3B3_1" pos="400" file="outputs/detectorsOut.xml" period="20"/>
  <inductionLoop id="detectorC3B3_2" lane="C3B3_2" pos="400" file="outputs/detectorsOut.xml" period="20"/>
  <inductionLoop id="detectorC3C2_0" lane="C3C2_0" pos="400" file="outputs/detectorsOut.xml" period="20"/>
  <inductionLoop id="detectorC3C2_1" lane="C3C2_1" pos="400" file="outputs/detectorsOut.xml" period="20"/>
  <inductionLoop id="detectorC3C2_2" lane="C3C2_2" pos="400" file="outputs/detectorsOut.xml" period="20"/>
  <inductionLoop id="detectorC3C4_0" lane="C3C4_0" pos="400" file="outputs/detectorsOut.xml" period="20"/>
  <inductionLoop id="detectorC3C4_1" lane="C3C4_1" pos="400" file="outputs/detectorsOut.xml" period="20"/>
  <inductionLoop id="detectorC3C4_2" lane="C3C4_2" pos="400" file="outputs/detectorsOut.xml" period="20"/>
  <inductionLoop id="detectorC3D3_0" lane="C3D3_0" pos="400" file="outputs/detectorsOut.xml" period="20"/>
  <inductionLoop id="detectorC3D3_1" lane="C3D3_1" pos="400" file="outputs/detectorsOut.xml" period="20"/>
  <inductionLoop id="detectorC3D3_2" lane="C3D3_2" pos="400" file="outputs/detectorsOut.xml" period="20"/>
  <inductionLoop id="detectorC4B4_0" lane="C4B4_0" pos="400" file="outputs/detectorsOut.xml" period="20"/>
  <inductionLoop id="detectorC4B4_1" lane="C4B4_1" pos="400" file="outputs/detectorsOut.xml" period="20"/>
  <inductionLoop id="detectorC4B4_2" lane="C4B4_2" pos="400" file="outputs/detectorsOut.xml" period="20"/>
  <inductionLoop id="detectorC4C3_0" lane="C4C3_0" pos="400" file="outputs/detectorsOut.xml" period="20"/>
  <inductionLoop id="detectorC4C3_1" lane="C4C3_1" pos="400" file="outputs/detectorsOut.xml" period="20"/>
  <inductionLoop id="detectorC4C3_2" lane="C4C3_2" pos="400" file="outputs/detectorsOut.xml" period="20"/>
  <inductionLoop id="detectorC4D4_0" lane="C4D4_0" pos="400" file="outputs/detectorsOut.xml" period="20"/>
  <inductionLoop id="detectorC4D4_1" lane="C4D4_1" pos="400" file="outputs/detectorsOut.xml" period="20"/>
  <inductionLoop id="detectorC4D4_2" lane="C4D4_2" pos="400" file="outputs/detectorsOut.xml" period="20"/>
  <inductionLoop id="detectorD0C0_0" lane="D0C0_0" pos="400" file="outputs/detectorsOut.xml" period="20"/>
  <inductionLoop id="detectorD0C0_1" lane="D0C0_1" pos="400" file="outputs/detectorsOut.xml" period="20"/>
  <inductionLoop id="detectorD0C0_2" lane="D0C0_2" pos="400" file="outputs/detectorsOut.xml" period="20"/>
  <inductionLoop id="detectorD0D1_0" lane="D0D1_0" pos="400" file="outputs/detectorsOut.xml" period="20"/>
  <inductionLoop id="detectorD0D1_1" lane="D0D1_1" pos="400" file="outputs/detectorsOut.xml" period="20"/>
  <inductionLoop id="detectorD0D1_2" lane="D0D1_2" pos="400" file="outputs/detectorsOut.xml" period="20"/>
  <inductionLoop id="detectorD0E0_0" lane="D0E0_0" pos="400" file="outputs/detectorsOut.xml" period="20"/>
  <inductionLoop id="detectorD0E0_1" lane="D0E0_1" pos="400" file="outputs/detectorsOut.xml" period="20"/>
  <inductionLoop id="detectorD0E0_2" lane="D0E0_2" pos="400" file="outputs/detectorsOut.xml" period="20"/>
  <inductionLoop id="detectorD1C1_0" lane="D1C1_0" pos="400" file="outputs/detectorsOut.xml" period="20"/>
  <inductionLoop id="detectorD1C1_1" lane="D1C1_1" pos="400" file="outputs/detectorsOut.xml" period="20"/>
  <inductionLoop id="detectorD1C1_2" lane="D1C1_2" pos="400" file="outputs/detectorsOut.xml" period="20"/>
  <inductionLoop id="detectorD1D0_0" lane="D1D0_0" pos="400" file="outputs/detectorsOut.xml" period="20"/>
  <inductionLoop id="detectorD1D0_1" lane="D1D0_1" pos="400" file="outputs/detectorsOut.xml" period="20"/>
  <inductionLoop id="detectorD1D0_2" lane="D1D0_2" pos="400" file="outputs/detectorsOut.xml" period="20"/>
  <inductionLoop id="detectorD1D2_0" lane="D1D2_0" pos="400" file="outputs/detectorsOut.xml" period="20"/>
  <inductionLoop id="detectorD1D2_1" lane="D1D2_1" pos="400" file="outputs/detectorsOut.xml" period="20"/>
  <inductionLoop id="detectorD1D2_2" lane="D1D2_2" pos="400" file="outputs/detectorsOut.xml" period="20"/>
  <inductionLoop id="detectorD1E1_0" lane="D1E1_0" pos="400" file="outputs/detectorsOut.xml" period="20"/>
  <inductionLoop id="detectorD1E1_1" lane="D1E1_1" pos="400" file="outputs/detectorsOut.xml" period="20"/>
  <inductionLoop id="detectorD1E1_2" lane="D1E1_2" pos="400" file="outputs/detectorsOut.xml" period="20"/>
  <inductionLoop id="detectorD2C2_0" lane="D2C2_0" pos="400" file="outputs/detectorsOut.xml" period="20"/>
  <inductionLoop id="detectorD2C2_1" lane="D2C2_1" pos="400" file="outputs/detectorsOut.xml" period="20"/>
  <inductionLoop id="detectorD2C2_2" lane="D2C2_2" pos="400" file="outputs/detectorsOut.xml" period="20"/>
  <inductionLoop id="detectorD2D1_0" lane="D2D1_0" pos="400" file="outputs/detectorsOut.xml" period="20"/>
  <inductionLoop id="detectorD2D1_1" lane="D2D1_1" pos="400" file="outputs/detectorsOut.xml" period="20"/>
  <inductionLoop id="detectorD2D1_2" lane="D2D1_2" pos="400" file="outputs/detectorsOut.xml" period="20"/>
  <inductionLoop id="detectorD2D3_0" lane="D2D3_0" pos="400" file="outputs/detectorsOut.xml" period="20"/>
  <inductionLoop id="detectorD2D3_1" lane="D2D3_1" pos="400" file="outputs/detectorsOut.xml" period="20"/>
  <inductionLoop id="detectorD2D3_2" lane="D2D3_2" pos="400" file="outputs/detectorsOut.xml" period="20"/>
  <inductionLoop id="detectorD2E2_0" lane="D2E2_0" pos="400" file="outputs/detectorsOut.xml" period="20"/>
  <inductionLoop id="detectorD2E2_1" lane="D2E2_1" pos="400" file="outputs/detectorsOut.xml" period="20"/>
  <inductionLoop id="detectorD2E2_2" lane="D2E2_2" pos="400" file="outputs/detectorsOut.xml" period="20"/>
  <inductionLoop id="detectorD3C3_0" lane="D3C3_0" pos="400" file="outputs/detectorsOut.xml" period="20"/>
  <inductionLoop id="detectorD3C3_1" lane="D3C3_1" pos="400" file="outputs/detectorsOut.xml" period="20"/>
  <inductionLoop id="detectorD3C3_2" lane="D3C3_2" pos="400" file="outputs/detectorsOut.xml" period="20"/>
  <inductionLoop id="detectorD3D2_0" lane="D3D2_0" pos="400" file="outputs/detectorsOut.xml" period="20"/>
  <inductionLoop id="detectorD3D2_1" lane="D3D2_1" pos="400" file="outputs/detectorsOut.xml" period="20"/>
  <inductionLoop id="detectorD3D2_2" lane="D3D2_2" pos="400" file="outputs/detectorsOut.xml" period="20"/>
  <inductionLoop id="detectorD3D4_0" lane="D3D4_0" pos="400" file="outputs/detectorsOut.xml" period="20"/>
  <inductionLoop id="detectorD3D4_1" lane="D3D4_1" pos="400" file="outputs/detectorsOut.xml" period="20"/>
  <inductionLoop id="detectorD3D4_2" lane="D3D4_2" pos="400" file="outputs/detectorsOut.xml" period="20"/>
  <inductionLoop id="detectorD3E3_0" lane="D3E3_0" pos="400" file="outputs/detectorsOut.xml" period="20"/>
  <inductionLoop id="detectorD3E3_1" lane="D3E3_1" pos="400" file="outputs/detectorsOut.xml" period="20"/>
  <inductionLoop id="detectorD3E3_2" lane="D3E3_2" pos="400" file="outputs/detectorsOut.xml" period="20"/>
  <inductionLoop id="detectorD4C4_0" lane="D4C4_0" pos="400" file="outputs/detectorsOut.xml" period="20"/>
  <inductionLoop id="detectorD4C4_1" lane="D4C4_1" pos="400" file="outputs/detectorsOut.xml" period="20"/>
  <inductionLoop id="detectorD4C4_2" lane="D4C4_2" pos="400" file="outputs/detectorsOut.xml" period="20"/>
  <inductionLoop id="detectorD4D3_0" lane="D4D3_0" pos="400" file="outputs/detectorsOut.xml" period="20"/>
  <inductionLoop id="detectorD4D3_1" lane="D4D3_1" pos="400" file="outputs/detectorsOut.xml" period="20"/>
  <inductionLoop id="detectorD4D3_2" lane="D4D3_2" pos="400" file="outputs/detectorsOut.xml" period="20"/>
  <inductionLoop id="detectorD4E4_0" lane="D4E4_0" pos="400" file="outputs/detectorsOut.xml" period="20"/>
  <inductionLoop id="detectorD4E4_1" lane="D4E4_1" pos="400" file="outputs/detectorsOut.xml" period="20"/>
  <inductionLoop id="detectorD4E4_2" lane="D4E4_2" pos="400" file="outputs/detectorsOut.xml" period="20"/>
  <inductionLoop id="detectorE0D0_0" lane="E0D0_0" pos="400" file="outputs/detectorsOut.xml" period="20"/>
  <inductionLoop id="detectorE0D0_1" lane="E0D0_1" pos="400" file="outputs/detectorsOut.xml" period="20"/>
  <inductionLoop id="detectorE0D0_2" lane="E0D0_2" pos="400" file="outputs/detectorsOut.xml" period="20"/>
  <inductionLoop id="detectorE0E1_0" lane="E0E1_0" pos="400" file="outputs/detectorsOut.xml" period="20"/>
  <inductionLoop id="detectorE0E1_1" lane="E0E1_1" pos="400" file="outputs/detectorsOut.xml" period="20"/>
  <inductionLoop id="detectorE0E1_2" lane="E0E1_2" pos="400" file="outputs/detectorsOut.xml" period="20"/>
  <inductionLoop id="detectorE1D1_0" lane="E1D1_0" pos="400" file="outputs/detectorsOut.xml" period="20"/>
  <inductionLoop id="detectorE1D1_1" lane="E1D1_1" pos="400" file="outputs/detectorsOut.xml" period="20"/>
  <inductionLoop id="detectorE1D1_2" lane="E1D1_2" pos="400" file="outputs/detectorsOut.xml" period="20"/>
  <inductionLoop id="detectorE1E0_0" lane="E1E0_0" pos="400" file="outputs/detectorsOut.xml" period="20"/>
  <inductionLoop id="detectorE1E0_1" lane="E1E0_1" pos="400" file="outputs/detectorsOut.xml" period="20"/>
  <inductionLoop id="detectorE1E0_2" lane="E1E0_2" pos="400" file="outputs/detectorsOut.xml" period="20"/>
  <inductionLoop id="detectorE1E2_0" lane="E1E2_0" pos="400" file="outputs/detectorsOut.xml" period="20"/>
  <inductionLoop id="detectorE1E2_1" lane="E1E2_1" pos="400" file="outputs/detectorsOut.xml" period="20"/>
  <inductionLoop id="detectorE1E2_2" lane="E1E2_2" pos="400" file="outputs/detectorsOut.xml" period="20"/>
  <inductionLoop id="detectorE2D2_0" lane="E2D2_0" pos="400" file="outputs/detectorsOut.xml" period="20"/>
  <inductionLoop id="detectorE2D2_1" lane="E2D2_1" pos="400" file="outputs/detectorsOut.xml" period="20"/>
  <inductionLoop id="detectorE2D2_2" lane="E2D2_2" pos="400" file="outputs/detectorsOut.xml" period="20"/>
  <inductionLoop id="detectorE2E1_0" lane="E2E1_0" pos="400" file="outputs/detectorsOut.xml" period="20"/>
  <inductionLoop id="detectorE2E1_1" lane="E2E1_1" pos="400" file="outputs/detectorsOut.xml" period="20"/>
  <inductionLoop id="detectorE2E1_2" lane="E2E1_2" pos="400" file="outputs/detectorsOut.xml" period="20"/>
  <inductionLoop id="detectorE2E3_0" lane="E2E3_0" pos="400" file="outputs/detectorsOut.xml" period="20"/>
  <inductionLoop id="detectorE2E3_1" lane="E2E3_1" pos="400" file="outputs/detectorsOut.xml" period="20"/>
  <inductionLoop id="detectorE2E3_2" lane="E2E3_2" pos="400" file="outputs/detectorsOut.xml" period="20"/>
  <inductionLoop id="detectorE3D3_0" lane="E3D3_0" pos="400" file="outputs/detectorsOut.xml" period="20"/>
  <inductionLoop id="detectorE3D3_1" lane="E3D3_1" pos="400" file="outputs/detectorsOut.xml" period="20"/>
  <inductionLoop id="detectorE3D3_2" lane="E3D3_2" pos="400" file="outputs/detectorsOut.xml" period="20"/>
  <inductionLoop id="detectorE3E2_0" lane="E3E2_0" pos="400" file="outputs/detectorsOut.xml" period="20"/>
  <inductionLoop id="detectorE3E2_1" lane="E3E2_1" pos="400" file="outputs/detectorsOut.xml" period="20"/>
  <inductionLoop id="detectorE3E2_2" lane="E3E2_2" pos="400" file="outputs/detectorsOut.xml" period="20"/>
  <inductionLoop id="detectorE3E4_0" lane="E3E4_0" pos="400" file="outputs/detectorsOut.xml" period="20"/>
  <inductionLoop id="detectorE3E4_1" lane="E3E4_1" pos="400" file="outputs/detectorsOut.xml" period="20"/>
  <inductionLoop id="detectorE3E4_2" lane="E3E4_2" pos="400" file="outputs/detectorsOut.xml" period="20"/>
  <inductionLoop id="detectorE4D4_0" lane="E4D4_0" pos="400" file="outputs/detectorsOut.xml" period="20"/>
  <inductionLoop id="detectorE4D4_1" lane="E4D4_1" pos="400" file="outputs/detectorsOut.xml" period="20"/>
  <inductionLoop id="detectorE4D4_2" lane="E4D4_2" pos="400" file="outputs/detectorsOut.xml" period="20"/>
  <inductionLoop id="detectorE4E3_0" lane="E4E3_0" pos="400" file="outputs/detectorsOut.xml" period="20"/>
  <inductionLoop id="detectorE4E3_1" lane="E4E3_1" pos="400" file="outputs/detectorsOut.xml" period="20"/>
  <inductionLoop id="detectorE4E3_2" lane="E4E3_2" pos="400" file="outputs/detectorsOut.xml" period="20"/>
</additional>
