<?xml version="1.0" encoding="UTF-8"?>

<!-- generated on 2025-10-17 20:19:06 by Eclipse SUMO duarouter Version 1.20.0
<configuration xmlns:xsi="http://www.w3.org/2001/XMLSchema-instance" xsi:noNamespaceSchemaLocation="http://sumo.dlr.de/xsd/duarouterConfiguration.xsd">

    <input>
        <net-file value="5x5.net.xml"/>
        <route-files value="5x5.trips.xml"/>
    </input>

    <output>
        <output-file value="5x5_weibull_110.rou.xml"/>
    </output>

    <processing>
        <route-steps value="18000"/>
    </processing>

</configuration>
-->

<routes xmlns:xsi="http://www.w3.org/2001/XMLSchema-instance" xsi:noNamespaceSchemaLocation="http://sumo.dlr.de/xsd/routes_file.xsd">
    <vehicle id="0" depart="0.00">
        <route edges="D0E0 E0E1 E1D1 D1C1 C1B1 B1A1 A1A0"/>
    </vehicle>
    <vehicle id="1" depart="2.00">
        <route edges="B2B3 B3C3 C3C2 C2C1 C1B1 B1B0"/>
    </vehicle>
    <vehicle id="2" depart="4.00">
        <route edges="D2D3 D3E3 E3E2 E2E1 E1D1 D1D2"/>
    </vehicle>
    <vehicle id="3" depart="6.00">
        <route edges="E1E2 E2D2 D2C2 C2B2 B2A2 A2A3"/>
    </vehicle>
    <vehicle id="4" depart="8.00">
        <route edges="C0D0 D0D1 D1C1 C1B1 B1A1 A1A0"/>
    </vehicle>
    <vehicle id="5" depart="10.00">
        <route edges="B1B0 B0C0 C0C1 C1C2 C2C3"/>
    </vehicle>
    <vehicle id="6" depart="12.00">
        <route edges="A1A0 A0B0 B0C0"/>
    </vehicle>
    <vehicle id="7" depart="14.00">
        <route edges="D0E0 E0E1 E1E2 E2D2 D2D3 D3C3 C3C2"/>
    </vehicle>
    <vehicle id="8" depart="16.00">
        <route edges="B1B0 B0A0 A0A1 A1A2 A2A3 A3B3 B3B4 B4C4 C4C3"/>
    </vehicle>
    <vehicle id="9" depart="18.00">
        <route edges="D4C4 C4C3 C3C2 C2C1 C1B1 B1B0 B0A0 A0A1"/>
    </vehicle>
    <vehicle id="10" depart="20.00">
        <route edges="D4C4 C4C3 C3C2 C2D2 D2D1 D1E1"/>
    </vehicle>
    <vehicle id="11" depart="22.00">
        <route edges="B3C3 C3C2 C2B2 B2B3 B3A3 A3A4 A4B4"/>
    </vehicle>
    <vehicle id="12" depart="24.00">
        <route edges="E3E2 E2D2 D2C2 C2C3 C3B3 B3B4"/>
    </vehicle>
    <vehicle id="13" depart="26.00">
        <route edges="A2B2"/>
    </vehicle>
    <vehicle id="14" depart="28.00">
        <route edges="E0D0 D0D1 D1D2 D2D3 D3C3 C3C4 C4D4"/>
    </vehicle>
    <vehicle id="15" depart="30.00">
        <route edges="D4C4 C4C3 C3C2 C2D2 D2D3"/>
    </vehicle>
    <vehicle id="16" depart="32.00">
        <route edges="C3B3 B3B4 B4C4 C4D4 D4D3 D3E3 E3E4"/>
    </vehicle>
    <vehicle id="17" depart="34.00">
        <route edges="B4C4 C4D4 D4D3 D3C3 C3C4"/>
    </vehicle>
    <vehicle id="18" depart="36.00">
        <route edges="D4E4 E4E3 E3E2 E2E1 E1D1 D1D0 D0C0"/>
    </vehicle>
    <vehicle id="19" depart="38.00">
        <route edges="E0E1 E1D1 D1D2 D2D3 D3C3 C3C4 C4B4"/>
    </vehicle>
    <vehicle id="20" depart="40.00">
        <route edges="D2C2 C2C1 C1B1 B1A1 A1A2"/>
    </vehicle>
    <vehicle id="21" depart="42.00">
        <route edges="B1B2 B2C2"/>
    </vehicle>
    <vehicle id="22" depart="44.00">
        <route edges="A2A3 A3B3 B3B2 B2C2 C2C1 C1B1 B1B2"/>
    </vehicle>
    <vehicle id="23" depart="46.00">
        <route edges="A3A2 A2B2 B2B3"/>
    </vehicle>
    <vehicle id="24" depart="48.00">
        <route edges="D0D1 D1C1 C1C2 C2C3 C3C4 C4B4 B4B3"/>
    </vehicle>
    <vehicle id="25" depart="50.00">
        <route edges="B4B3 B3B2 B2B1 B1A1"/>
    </vehicle>
    <vehicle id="26" depart="52.00">
        <route edges="B2B1 B1C1 C1D1 D1D2 D2E2 E2E3"/>
    </vehicle>
    <vehicle id="27" depart="54.00">
        <route edges="D0E0 E0E1 E1E2 E2D2 D2D3 D3C3 C3C4 C4D4"/>
    </vehicle>
    <vehicle id="28" depart="56.00">
        <route edges="B0A0 A0A1 A1B1 B1C1 C1C2 C2D2 D2D3"/>
    </vehicle>
    <vehicle id="29" depart="58.00">
        <route edges="B0A0 A0A1 A1A2 A2A3 A3B3 B3B4 B4C4"/>
    </vehicle>
    <vehicle id="30" depart="60.00">
        <route edges="E4E3 E3E2 E2E1 E1D1 D1D0 D0E0"/>
    </vehicle>
    <vehicle id="31" depart="62.00">
        <route edges="C3C4 C4D4 D4D3 D3E3 E3E2 E2E1 E1D1 D1D2"/>
    </vehicle>
    <vehicle id="32" depart="64.00">
        <route edges="E0D0 D0D1 D1D2 D2D3 D3D4"/>
    </vehicle>
    <vehicle id="33" depart="66.00">
        <route edges="B1B2 B2A2 A2A1 A1A0"/>
    </vehicle>
    <vehicle id="34" depart="68.00">
        <route edges="B3B2 B2B1"/>
    </vehicle>
    <vehicle id="35" depart="70.00">
        <route edges="B1A1 A1A2 A2B2 B2C2 C2D2 D2E2 E2E3 E3D3"/>
    </vehicle>
    <vehicle id="36" depart="72.00">
        <route edges="E1E0 E0D0 D0D1 D1D2 D2C2 C2C3 C3B3 B3B2"/>
    </vehicle>
    <vehicle id="37" depart="74.00">
        <route edges="D1C1 C1C0 C0B0"/>
    </vehicle>
    <vehicle id="38" depart="76.00">
        <route edges="E2E1 E1D1 D1C1 C1C2"/>
    </vehicle>
    <vehicle id="39" depart="78.00">
        <route edges="B2B1 B1C1"/>
    </vehicle>
    <vehicle id="40" depart="80.00">
        <route edges="C3C4 C4B4 B4B3 B3B2 B2B1"/>
    </vehicle>
    <vehicle id="41" depart="82.00">
        <route edges="C4B4 B4B3 B3C3 C3C2 C2D2 D2D1 D1E1 E1E2"/>
    </vehicle>
    <vehicle id="42" depart="84.00">
        <route edges="C0B0 B0A0 A0A1 A1B1 B1B0"/>
    </vehicle>
    <vehicle id="43" depart="86.00">
        <route edges="E4E3 E3D3 D3D2 D2C2 C2C3"/>
    </vehicle>
    <vehicle id="44" depart="88.00">
        <route edges="A2B2 B2B1 B1A1 A1A2"/>
    </vehicle>
    <vehicle id="45" depart="90.00">
        <route edges="A3A2 A2B2 B2B1 B1C1 C1C0 C0D0 D0D1"/>
    </vehicle>
    <vehicle id="46" depart="92.00">
        <route edges="D3E3 E3E2 E2D2 D2D1 D1C1 C1C0 C0D0"/>
    </vehicle>
    <vehicle id="47" depart="94.00">
        <route edges="A2A1 A1B1 B1B2 B2B3 B3B4 B4C4"/>
    </vehicle>
    <vehicle id="48" depart="96.00">
        <route edges="E4E3 E3D3 D3C3 C3B3"/>
    </vehicle>
    <vehicle id="49" depart="98.00">
        <route edges="E3E4 E4D4 D4D3 D3D2 D2D1 D1D0 D0E0 E0E1"/>
    </vehicle>
    <vehicle id="50" depart="100.00">
        <route edges="A0A1 A1B1 B1B2 B2C2 C2D2 D2D1"/>
    </vehicle>
    <vehicle id="51" depart="102.00">
        <route edges="D1D2 D2C2 C2C3 C3B3"/>
    </vehicle>
    <vehicle id="52" depart="104.00">
        <route edges="B2B1 B1C1 C1D1 D1D0 D0E0"/>
    </vehicle>
    <vehicle id="53" depart="106.00">
        <route edges="A3A2 A2B2 B2C2 C2C1 C1B1"/>
    </vehicle>
    <vehicle id="54" depart="108.00">
        <route edges="C1C2 C2D2 D2D3 D3E3 E3E2"/>
    </vehicle>
    <vehicle id="55" depart="110.00">
        <route edges="E1E0 E0D0 D0D1 D1C1 C1C2 C2B2 B2B1"/>
    </vehicle>
    <vehicle id="56" depart="112.00">
        <route edges="C2C3 C3D3 D3D2 D2D1 D1C1 C1C0 C0B0 B0B1"/>
    </vehicle>
    <vehicle id="57" depart="114.00">
        <route edges="E2E1 E1D1"/>
    </vehicle>
    <vehicle id="58" depart="116.00">
        <route edges="B2C2 C2C1 C1D1 D1D0 D0E0"/>
    </vehicle>
    <vehicle id="59" depart="118.00">
        <route edges="C4D4 D4D3 D3C3 C3B3 B3A3 A3A4 A4B4"/>
    </vehicle>
    <vehicle id="60" depart="120.00">
        <route edges="D3D2 D2C2 C2B2 B2B3 B3C3 C3C2"/>
    </vehicle>
    <vehicle id="61" depart="122.00">
        <route edges="D3D4 D4C4 C4C3 C3B3"/>
    </vehicle>
    <vehicle id="62" depart="124.00">
        <route edges="A0A1 A1A2 A2A3 A3B3 B3B2"/>
    </vehicle>
    <vehicle id="63" depart="126.00">
        <route edges="A0B0 B0B1 B1C1 C1D1 D1D2 D2E2 E2E3"/>
    </vehicle>
    <vehicle id="64" depart="128.00">
        <route edges="E1E0 E0D0 D0D1 D1D2 D2D3 D3D4 D4E4"/>
    </vehicle>
    <vehicle id="65" depart="130.00">
        <route edges="B3A3 A3A2 A2A1 A1B1"/>
    </vehicle>
    <vehicle id="66" depart="132.00">
        <route edges="E1E0 E0D0 D0D1 D1D2 D2E2 E2E3 E3D3"/>
    </vehicle>
    <vehicle id="67" depart="134.00">
        <route edges="A2A3 A3B3 B3C3 C3C2 C2B2"/>
    </vehicle>
    <vehicle id="68" depart="136.00">
        <route edges="A2A1 A1B1 B1C1 C1C2 C2D2 D2D3 D3C3"/>
    </vehicle>
    <vehicle id="69" depart="138.00">
        <route edges="D3D2 D2C2 C2B2 B2A2 A2A3 A3B3"/>
    </vehicle>
    <vehicle id="70" depart="140.00">
        <route edges="C2B2 B2B3 B3C3 C3C2"/>
    </vehicle>
    <vehicle id="71" depart="142.00">
        <route edges="B2B1 B1C1 C1D1 D1D2 D2E2 E2E1 E1D1"/>
    </vehicle>
    <vehicle id="72" depart="144.00">
        <route edges="C0D0 D0D1 D1C1 C1B1 B1A1"/>
    </vehicle>
    <vehicle id="73" depart="146.00">
        <route edges="C3C2 C2D2 D2D3"/>
    </vehicle>
    <vehicle id="74" depart="148.00">
        <route edges="B1A1 A1A2 A2B2 B2B3 B3A3"/>
    </vehicle>
    <vehicle id="75" depart="150.00">
        <route edges="E4E3 E3E2 E2E1 E1D1 D1D0 D0E0"/>
    </vehicle>
    <vehicle id="76" depart="152.00">
        <route edges="C1C0 C0B0 B0B1 B1C1 C1C2 C2D2"/>
    </vehicle>
    <vehicle id="77" depart="154.00">
        <route edges="A3A4 A4B4 B4B3 B3B2 B2B1 B1B0"/>
    </vehicle>
    <vehicle id="78" depart="156.00">
        <route edges="B3C3 C3D3 D3D4 D4C4 C4C3"/>
    </vehicle>
    <vehicle id="79" depart="158.00">
        <route edges="B1B2 B2C2 C2C1 C1B1 B1B0"/>
    </vehicle>
    <vehicle id="80" depart="160.00">
        <route edges="A2A1 A1B1 B1C1 C1C0 C0D0 D0D1"/>
    </vehicle>
    <vehicle id="81" depart="162.00">
        <route edges="B1B2 B2C2 C2C3 C3D3 D3E3 E3E2 E2D2"/>
    </vehicle>
    <vehicle id="82" depart="164.00">
        <route edges="E0E1 E1D1 D1C1 C1B1 B1B2 B2A2 A2A1"/>
    </vehicle>
    <vehicle id="83" depart="166.00">
        <route edges="B1C1 C1D1 D1D0"/>
    </vehicle>
    <vehicle id="84" depart="168.00">
        <route edges="B1B0 B0A0 A0A1 A1A2 A2A3 A3B3"/>
    </vehicle>
    <vehicle id="85" depart="170.00">
        <route edges="E2E3 E3D3 D3D2 D2C2 C2C3 C3D3"/>
    </vehicle>
    <vehicle id="86" depart="172.00">
        <route edges="C1D1 D1D2 D2D3 D3D4"/>
    </vehicle>
    <vehicle id="87" depart="174.00">
        <route edges="D4C4 C4C3 C3C2 C2C1 C1B1 B1B0 B0C0"/>
    </vehicle>
    <vehicle id="88" depart="176.00">
        <route edges="A2B2 B2C2 C2C1 C1B1"/>
    </vehicle>
    <vehicle id="89" depart="178.00">
        <route edges="C0D0 D0D1 D1D2 D2C2 C2C1 C1D1"/>
    </vehicle>
    <vehicle id="90" depart="180.00">
        <route edges="D2D3 D3E3 E3E2 E2E1 E1D1 D1D0"/>
    </vehicle>
    <vehicle id="91" depart="182.00">
        <route edges="E4D4 D4D3 D3C3 C3B3 B3A3 A3A2 A2B2"/>
    </vehicle>
    <vehicle id="92" depart="184.00">
        <route edges="C0C1 C1B1 B1B2 B2B3 B3C3"/>
    </vehicle>
    <vehicle id="93" depart="186.00">
        <route edges="E0E1 E1D1 D1D0 D0C0 C0B0 B0B1 B1C1"/>
    </vehicle>
    <vehicle id="94" depart="188.00">
        <route edges="B0C0 C0D0 D0D1 D1C1 C1C0"/>
    </vehicle>
    <vehicle id="95" depart="190.00">
        <route edges="C0D0 D0D1 D1C1 C1C2 C2B2 B2B3"/>
    </vehicle>
    <vehicle id="96" depart="192.00">
        <route edges="B1C1 C1C2 C2D2 D2E2 E2E1"/>
    </vehicle>
    <vehicle id="97" depart="194.00">
        <route edges="C1C0 C0D0 D0E0 E0E1"/>
    </vehicle>
    <vehicle id="98" depart="196.00">
        <route edges="C3C4 C4B4 B4B3 B3B2 B2A2 A2A1 A1B1"/>
    </vehicle>
    <vehicle id="99" depart="198.00">
        <route edges="E4E3 E3D3 D3D4 D4E4"/>
    </vehicle>
    <vehicle id="100" depart="200.00">
        <route edges="E3E4 E4D4 D4D3 D3D2 D2E2 E2E3"/>
    </vehicle>
    <vehicle id="101" depart="202.00">
        <route edges="E0D0 D0C0 C0B0 B0A0"/>
    </vehicle>
    <vehicle id="102" depart="204.00">
        <route edges="C2B2 B2B1 B1B0"/>
    </vehicle>
    <vehicle id="103" depart="206.00">
        <route edges="C0C1 C1B1 B1B0 B0A0 A0A1 A1B1"/>
    </vehicle>
    <vehicle id="104" depart="208.00">
        <route edges="B4C4 C4D4 D4D3 D3E3 E3E4 E4D4"/>
    </vehicle>
    <vehicle id="105" depart="210.00">
        <route edges="B2B1 B1C1 C1C2 C2C3 C3D3 D3D4"/>
    </vehicle>
    <vehicle id="106" depart="212.00">
        <route edges="C1C2 C2D2 D2D1 D1C1 C1C0 C0D0"/>
    </vehicle>
    <vehicle id="107" depart="214.00">
        <route edges="E3E2 E2D2 D2D3 D3D4 D4E4 E4E3"/>
    </vehicle>
    <vehicle id="108" depart="216.00">
        <route edges="C3C4 C4D4 D4D3 D3D2 D2D1"/>
    </vehicle>
    <vehicle id="109" depart="218.00">
        <route edges="A4B4 B4B3 B3B2 B2C2"/>
    </vehicle>
    <vehicle id="110" depart="220.00">
        <route edges="E3E4 E4D4 D4C4 C4B4"/>
    </vehicle>
    <vehicle id="111" depart="222.00">
        <route edges="C3C2 C2D2 D2E2"/>
    </vehicle>
    <vehicle id="112" depart="224.00">
        <route edges="A1B1 B1B2 B2B3 B3C3 C3C4 C4B4"/>
    </vehicle>
    <vehicle id="113" depart="226.00">
        <route edges="C2C3 C3D3 D3D2 D2D1 D1D0 D0E0 E0E1"/>
    </vehicle>
    <vehicle id="114" depart="228.00">
        <route edges="A4B4 B4C4 C4D4 D4D3 D3E3 E3E2"/>
    </vehicle>
    <vehicle id="115" depart="230.00">
        <route edges="A2A3 A3B3 B3B2 B2C2 C2C1 C1C0 C0B0 B0B1"/>
    </vehicle>
    <vehicle id="116" depart="232.00">
        <route edges="C4C3 C3C2 C2C1 C1D1 D1D2"/>
    </vehicle>
    <vehicle id="117" depart="234.00">
        <route edges="B1B2 B2A2 A2A3 A3A4"/>
    </vehicle>
    <vehicle id="118" depart="236.00">
        <route edges="E1E2 E2D2 D2C2 C2B2 B2B1 B1C1"/>
    </vehicle>
    <vehicle id="119" depart="238.00">
        <route edges="C4C3 C3D3 D3D2 D2D1 D1D0 D0C0"/>
    </vehicle>
    <vehicle id="120" depart="240.00">
        <route edges="C0D0 D0D1 D1D2 D2C2 C2C3 C3C4 C4B4"/>
    </vehicle>
    <vehicle id="121" depart="242.00">
        <route edges="C2D2 D2E2 E2E3"/>
    </vehicle>
    <vehicle id="122" depart="244.00">
        <route edges="B1A1 A1A2 A2B2 B2C2 C2D2 D2D1"/>
    </vehicle>
    <vehicle id="123" depart="246.00">
        <route edges="B1C1 C1C0 C0B0"/>
    </vehicle>
    <vehicle id="124" depart="248.00">
        <route edges="D1D0 D0C0 C0C1 C1B1 B1B2 B2C2"/>
    </vehicle>
    <vehicle id="125" depart="250.00">
        <route edges="B3B2 B2C2 C2D2 D2D3 D3C3"/>
    </vehicle>
    <vehicle id="126" depart="252.00">
        <route edges="A2A1 A1B1 B1C1 C1C2"/>
    </vehicle>
    <vehicle id="127" depart="254.00">
        <route edges="E4E3"/>
    </vehicle>
    <vehicle id="128" depart="256.00">
        <route edges="A2A1 A1B1 B1B0"/>
    </vehicle>
    <vehicle id="129" depart="258.00">
        <route edges="B2B1 B1C1 C1D1 D1D2 D2E2 E2E3"/>
    </vehicle>
    <vehicle id="130" depart="260.00">
        <route edges="E1E0"/>
    </vehicle>
    <vehicle id="131" depart="262.00">
        <route edges="B4B3 B3A3 A3A4 A4B4"/>
    </vehicle>
    <vehicle id="132" depart="264.00">
        <route edges="D4E4 E4E3 E3D3 D3D2 D2C2"/>
    </vehicle>
    <vehicle id="133" depart="266.00">
        <route edges="C4D4 D4D3 D3E3 E3E4 E4D4"/>
    </vehicle>
    <vehicle id="134" depart="268.00">
        <route edges="D1C1 C1C0 C0B0 B0A0 A0A1"/>
    </vehicle>
    <vehicle id="135" depart="270.00">
        <route edges="D4D3 D3C3 C3B3 B3B2 B2C2"/>
    </vehicle>
    <vehicle id="136" depart="272.00">
        <route edges="D1D0 D0E0 E0E1 E1E2 E2E3 E3D3"/>
    </vehicle>
    <vehicle id="137" depart="274.00">
        <route edges="A3B3 B3B2 B2A2 A2A3 A3A4"/>
    </vehicle>
    <vehicle id="138" depart="276.00">
        <route edges="A3A2 A2B2 B2B3 B3C3 C3C4"/>
    </vehicle>
    <vehicle id="139" depart="278.00">
        <route edges="B2B1 B1C1 C1C2 C2C3 C3C4 C4D4"/>
    </vehicle>
    <vehicle id="140" depart="280.00">
        <route edges="D2D1 D1C1 C1B1 B1A1"/>
    </vehicle>
    <vehicle id="141" depart="282.00">
        <route edges="D0D1 D1C1 C1C2 C2B2 B2B1"/>
    </vehicle>
    <vehicle id="142" depart="284.00">
        <route edges="C2C1 C1D1 D1E1 E1E2 E2D2"/>
    </vehicle>
    <vehicle id="143" depart="286.00">
        <route edges="E0D0 D0C0 C0B0 B0B1 B1A1 A1A2 A2B2"/>
    </vehicle>
    <vehicle id="144" depart="288.00">
        <route edges="C0D0 D0D1 D1C1 C1C2 C2B2 B2B3"/>
    </vehicle>
    <vehicle id="145" depart="290.00">
        <route edges="A0A1 A1B1 B1B2 B2C2 C2C3 C3D3 D3D2"/>
    </vehicle>
    <vehicle id="146" depart="292.00">
        <route edges="D0D1 D1C1 C1B1 B1B2 B2A2"/>
    </vehicle>
    <vehicle id="147" depart="294.00">
        <route edges="D2E2 E2E3 E3D3 D3C3 C3C4"/>
    </vehicle>
    <vehicle id="148" depart="296.00">
        <route edges="C1B1 B1B0 B0A0 A0A1"/>
    </vehicle>
    <vehicle id="149" depart="298.00">
        <route edges="A2A3 A3B3 B3C3 C3C2 C2D2 D2D1 D1E1 E1E0"/>
    </vehicle>
    <vehicle id="150" depart="300.00">
        <route edges="E2D2 D2D3 D3C3 C3C2"/>
    </vehicle>
    <vehicle id="151" depart="302.00">
        <route edges="D4E4 E4E3 E3D3 D3C3 C3C4 C4B4"/>
    </vehicle>
    <vehicle id="152" depart="304.00">
        <route edges="A4A3 A3B3"/>
    </vehicle>
    <vehicle id="153" depart="306.00">
        <route edges="B3A3 A3A2 A2B2 B2C2 C2D2 D2D1 D1E1 E1E2"/>
    </vehicle>
    <vehicle id="154" depart="308.00">
        <route edges="D3E3 E3E2 E2E1 E1D1 D1D0 D0E0 E0E1"/>
    </vehicle>
    <vehicle id="155" depart="310.00">
        <route edges="E1E2 E2D2 D2C2 C2C1 C1B1 B1A1"/>
    </vehicle>
    <vehicle id="156" depart="312.00">
        <route edges="B1C1 C1C2 C2B2 B2B3 B3A3 A3A2"/>
    </vehicle>
    <vehicle id="157" depart="314.00">
        <route edges="D3D4 D4E4 E4E3 E3E2 E2E1 E1E0"/>
    </vehicle>
    <vehicle id="158" depart="316.00">
        <route edges="C0C1 C1D1 D1D0 D0C0"/>
    </vehicle>
    <vehicle id="159" depart="318.00">
        <route edges="A4B4 B4C4 C4C3 C3D3 D3D2 D2E2 E2E3"/>
    </vehicle>
    <vehicle id="160" depart="320.00">
        <route edges="E1D1 D1D2 D2D3 D3E3 E3E4 E4D4"/>
    </vehicle>
    <vehicle id="161" depart="322.00">
        <route edges="D4C4 C4C3 C3C2 C2D2 D2D1 D1E1 E1E0"/>
    </vehicle>
    <vehicle id="162" depart="324.00">
        <route edges="A0B0 B0B1 B1C1 C1C2 C2D2 D2D3"/>
    </vehicle>
    <vehicle id="163" depart="326.00">
        <route edges="B3B4 B4C4 C4C3 C3D3 D3D2 D2E2 E2E3"/>
    </vehicle>
    <vehicle id="164" depart="328.00">
        <route edges="D4C4 C4C3 C3D3 D3D2 D2E2 E2E1 E1D1"/>
    </vehicle>
    <vehicle id="165" depart="330.00">
        <route edges="D4C4 C4C3 C3C2 C2B2 B2B1"/>
    </vehicle>
    <vehicle id="166" depart="332.00">
        <route edges="D3D4 D4C4 C4C3 C3B3 B3A3 A3A2"/>
    </vehicle>
    <vehicle id="167" depart="334.00">
        <route edges="E1D1 D1D0 D0E0 E0E1"/>
    </vehicle>
    <vehicle id="168" depart="336.00">
        <route edges="B1B0 B0C0 C0C1 C1C2 C2C3 C3C4 C4D4 D4D3"/>
    </vehicle>
    <vehicle id="169" depart="338.00">
        <route edges="C1C2 C2B2 B2B3 B3A3"/>
    </vehicle>
    <vehicle id="170" depart="340.00">
        <route edges="D3E3 E3E2 E2D2 D2D1 D1C1 C1B1 B1B2"/>
    </vehicle>
    <vehicle id="171" depart="342.00">
        <route edges="A0B0 B0C0"/>
    </vehicle>
    <vehicle id="172" depart="344.00">
        <route edges="B3B4 B4C4 C4C3 C3D3 D3D2 D2E2 E2E1 E1D1"/>
    </vehicle>
    <vehicle id="173" depart="346.00">
        <route edges="E3E4 E4D4 D4D3 D3C3 C3C2 C2B2 B2B3"/>
    </vehicle>
    <vehicle id="174" depart="348.00">
        <route edges="D0E0 E0E1 E1D1 D1C1 C1C0 C0B0"/>
    </vehicle>
    <vehicle id="175" depart="350.00">
        <route edges="E4D4 D4D3 D3C3 C3B3"/>
    </vehicle>
    <vehicle id="176" depart="352.00">
        <route edges="E3D3 D3C3 C3B3 B3A3 A3A4"/>
    </vehicle>
    <vehicle id="177" depart="354.00">
        <route edges="E3E4 E4D4 D4D3 D3D2 D2D1 D1C1 C1C0 C0B0 B0B1"/>
    </vehicle>
    <vehicle id="178" depart="356.00">
        <route edges="E3E4 E4D4 D4D3 D3C3 C3C2 C2B2 B2B1"/>
    </vehicle>
    <vehicle id="179" depart="358.00">
        <route edges="A3A2 A2B2 B2C2 C2C1 C1B1"/>
    </vehicle>
    <vehicle id="180" depart="360.00">
        <route edges="D2D3 D3C3 C3B3 B3B2"/>
    </vehicle>
    <vehicle id="181" depart="362.00">
        <route edges="C4D4 D4D3 D3D2 D2C2 C2C3"/>
    </vehicle>
    <vehicle id="182" depart="364.00">
        <route edges="B4C4 C4D4 D4D3 D3C3 C3C4 C4B4"/>
    </vehicle>
    <vehicle id="183" depart="366.00">
        <route edges="B2A2 A2A3 A3B3 B3C3 C3D3 D3D2 D2C2"/>
    </vehicle>
    <vehicle id="184" depart="368.00">
        <route edges="A0A1 A1B1 B1C1 C1D1 D1D2 D2E2 E2E3"/>
    </vehicle>
    <vehicle id="185" depart="370.00">
        <route edges="C3C2 C2D2 D2D1"/>
    </vehicle>
    <vehicle id="186" depart="372.00">
        <route edges="D2E2 E2E1 E1D1 D1D0"/>
    </vehicle>
    <vehicle id="187" depart="374.00">
        <route edges="B4B3 B3B2 B2A2 A2A1"/>
    </vehicle>
    <vehicle id="188" depart="376.00">
        <route edges="D1D0 D0C0 C0C1 C1B1 B1B2 B2B3 B3B4"/>
    </vehicle>
    <vehicle id="189" depart="378.00">
        <route edges="B3B2 B2C2 C2D2 D2D1 D1E1 E1E0 E0D0"/>
    </vehicle>
    <vehicle id="190" depart="380.00">
        <route edges="D2D1 D1C1 C1C2 C2B2 B2B3 B3A3"/>
    </vehicle>
    <vehicle id="191" depart="382.00">
        <route edges="B3A3 A3A2 A2B2 B2B1 B1B0 B0C0 C0C1"/>
    </vehicle>
    <vehicle id="192" depart="384.00">
        <route edges="C0C1 C1B1 B1B2 B2C2"/>
    </vehicle>
    <vehicle id="193" depart="386.00">
        <route edges="A3B3 B3B2 B2C2 C2C1 C1C0 C0D0"/>
    </vehicle>
    <vehicle id="194" depart="388.00">
        <route edges="E3D3 D3D2 D2E2 E2E1 E1D1 D1D2"/>
    </vehicle>
    <vehicle id="195" depart="390.00">
        <route edges="E2D2 D2D1 D1D0 D0C0"/>
    </vehicle>
    <vehicle id="196" depart="392.00">
        <route edges="B3A3 A3A4 A4B4 B4B3 B3C3 C3C2"/>
    </vehicle>
    <vehicle id="197" depart="394.00">
        <route edges="A0A1 A1A2 A2B2 B2B3"/>
    </vehicle>
    <vehicle id="198" depart="396.00">
        <route edges="C1B1 B1B2 B2B3 B3C3 C3C4 C4B4"/>
    </vehicle>
    <vehicle id="199" depart="398.00">
        <route edges="D1C1 C1B1 B1B2 B2C2 C2C1 C1D1"/>
    </vehicle>
    <vehicle id="200" depart="400.00">
        <route edges="C1C0 C0B0 B0A0 A0A1 A1B1 B1B0"/>
    </vehicle>
    <vehicle id="201" depart="402.00">
        <route edges="C1D1 D1E1 E1E2 E2D2"/>
    </vehicle>
    <vehicle id="202" depart="404.00">
        <route edges="D3E3 E3E2 E2D2 D2D1 D1C1 C1C0 C0B0 B0A0"/>
    </vehicle>
    <vehicle id="203" depart="406.00">
        <route edges="A2A3 A3B3 B3C3 C3C2 C2D2"/>
    </vehicle>
    <vehicle id="204" depart="408.00">
        <route edges="D0D1 D1C1 C1C2 C2B2 B2B3 B3B4"/>
    </vehicle>
    <vehicle id="205" depart="410.00">
        <route edges="D4D3 D3C3"/>
    </vehicle>
    <vehicle id="206" depart="412.00">
        <route edges="D1D0 D0C0 C0C1 C1B1 B1B0"/>
    </vehicle>
    <vehicle id="207" depart="414.00">
        <route edges="B0C0 C0C1 C1B1 B1A1 A1A0 A0B0"/>
    </vehicle>
    <vehicle id="208" depart="416.00">
        <route edges="B1C1 C1C2 C2B2"/>
    </vehicle>
    <vehicle id="209" depart="418.00">
        <route edges="E0D0 D0C0 C0C1 C1B1 B1B2 B2A2 A2A1"/>
    </vehicle>
    <vehicle id="210" depart="420.00">
        <route edges="C0D0 D0D1"/>
    </vehicle>
    <vehicle id="211" depart="422.00">
        <route edges="B0C0 C0C1 C1D1 D1E1"/>
    </vehicle>
    <vehicle id="212" depart="424.00">
        <route edges="C2C1 C1C0 C0B0 B0B1 B1C1"/>
    </vehicle>
    <vehicle id="213" depart="426.00">
        <route edges="D1C1 C1C0 C0B0 B0A0 A0A1"/>
    </vehicle>
    <vehicle id="214" depart="428.00">
        <route edges="D3C3 C3C4 C4D4 D4D3 D3D2"/>
    </vehicle>
    <vehicle id="215" depart="430.00">
        <route edges="A3A2 A2B2 B2C2 C2C1 C1B1"/>
    </vehicle>
    <vehicle id="216" depart="432.00">
        <route edges="B0B1 B1C1 C1C2 C2D2 D2D3 D3E3 E3E2"/>
    </vehicle>
    <vehicle id="217" depart="434.00">
        <route edges="C2D2 D2D1 D1C1 C1C0 C0B0 B0A0 A0A1 A1B1"/>
    </vehicle>
    <vehicle id="218" depart="436.00">
        <route edges="B1C1 C1D1 D1E1 E1E0 E0D0"/>
    </vehicle>
    <vehicle id="219" depart="438.00">
        <route edges="C1C2 C2C3 C3D3 D3D4 D4C4"/>
    </vehicle>
    <vehicle id="220" depart="440.00">
        <route edges="D1D0 D0C0 C0C1 C1C2 C2C3 C3D3 D3D4 D4E4 E4E3"/>
    </vehicle>
    <vehicle id="221" depart="442.00">
        <route edges="C4C3 C3D3 D3E3 E3E2"/>
    </vehicle>
    <vehicle id="222" depart="444.00">
        <route edges="E1E2 E2D2 D2D1 D1D0 D0C0"/>
    </vehicle>
    <vehicle id="223" depart="446.00">
        <route edges="D2D1 D1C1 C1C2 C2C3"/>
    </vehicle>
    <vehicle id="224" depart="448.00">
        <route edges="D4E4 E4E3 E3D3 D3C3 C3C2"/>
    </vehicle>
    <vehicle id="225" depart="450.00">
        <route edges="E1E2 E2E3 E3D3 D3D2 D2E2"/>
    </vehicle>
    <vehicle id="226" depart="452.00">
        <route edges="C1D1 D1D2 D2C2 C2B2 B2A2"/>
    </vehicle>
    <vehicle id="227" depart="454.00">
        <route edges="B1C1 C1D1 D1D0 D0E0"/>
    </vehicle>
    <vehicle id="228" depart="456.00">
        <route edges="D3D2 D2D1 D1C1 C1C2 C2D2"/>
    </vehicle>
    <vehicle id="229" depart="458.00">
        <route edges="D0D1 D1C1 C1C2 C2B2 B2B1"/>
    </vehicle>
    <vehicle id="230" depart="459.99">
        <route edges="A2A3 A3B3 B3C3 C3C2 C2B2 B2B3"/>
    </vehicle>
    <vehicle id="231" depart="460.00">
        <route edges="B2B1 B1A1 A1A2 A2A3 A3B3 B3B2"/>
    </vehicle>
    <vehicle id="232" depart="461.98">
        <route edges="C3C2 C2B2 B2B3 B3B4 B4A4 A4A3"/>
    </vehicle>
    <vehicle id="233" depart="462.00">
        <route edges="B1B2 B2C2 C2D2 D2D1 D1E1"/>
    </vehicle>
    <vehicle id="234" depart="463.97">
        <route edges="D2C2 C2B2 B2A2 A2A1"/>
    </vehicle>
    <vehicle id="235" depart="464.00">
        <route edges="C0C1 C1B1 B1B2 B2B3 B3C3 C3C2"/>
    </vehicle>
    <vehicle id="236" depart="465.97">
        <route edges="C0D0 D0D1 D1C1 C1B1 B1A1"/>
    </vehicle>
    <vehicle id="237" depart="466.00">
        <route edges="C0D0 D0D1 D1E1 E1E2 E2D2"/>
    </vehicle>
    <vehicle id="238" depart="467.96">
        <route edges="C4B4 B4B3 B3C3 C3C2 C2D2 D2D1 D1E1"/>
    </vehicle>
    <vehicle id="239" depart="468.00">
        <route edges="E0E1 E1E2 E2E3 E3D3 D3D2"/>
    </vehicle>
    <vehicle id="240" depart="469.95">
        <route edges="B4C4 C4C3 C3C2 C2C1 C1B1 B1B0 B0A0 A0A1"/>
    </vehicle>
    <vehicle id="241" depart="470.00">
        <route edges="B4A4 A4A3 A3B3 B3C3 C3C4 C4D4 D4D3 D3C3"/>
    </vehicle>
    <vehicle id="242" depart="471.94">
        <route edges="E0E1 E1D1 D1D2 D2D3 D3E3 E3E2"/>
    </vehicle>
    <vehicle id="243" depart="472.00">
        <route edges="C0D0 D0D1 D1D2 D2E2"/>
    </vehicle>
    <vehicle id="244" depart="473.93">
        <route edges="C3C2 C2B2 B2B3 B3C3 C3C4 C4D4"/>
    </vehicle>
    <vehicle id="245" depart="474.00">
        <route edges="B1B0"/>
    </vehicle>
    <vehicle id="246" depart="475.93">
        <route edges="C1B1 B1A1 A1A0"/>
    </vehicle>
    <vehicle id="247" depart="476.00">
        <route edges="B3B4 B4C4 C4C3 C3C2 C2C1 C1D1 D1D2"/>
    </vehicle>
    <vehicle id="248" depart="477.92">
        <route edges="C0C1 C1B1 B1B0 B0A0"/>
    </vehicle>
    <vehicle id="249" depart="478.00">
        <route edges="C1D1 D1D2 D2C2 C2B2 B2A2 A2A3 A3B3"/>
    </vehicle>
    <vehicle id="250" depart="479.91">
        <route edges="D0C0 C0B0 B0B1 B1A1 A1A0"/>
    </vehicle>
    <vehicle id="251" depart="480.00">
        <route edges="C0B0 B0B1 B1B2 B2C2 C2C3 C3D3"/>
    </vehicle>
    <vehicle id="252" depart="481.90">
        <route edges="A1A0 A0B0 B0C0 C0D0 D0E0"/>
    </vehicle>
    <vehicle id="253" depart="482.00">
        <route edges="A3B3 B3B2 B2B1 B1C1 C1C2"/>
    </vehicle>
    <vehicle id="254" depart="483.89">
        <route edges="A1B1 B1B2 B2B3 B3B4 B4C4"/>
    </vehicle>
    <vehicle id="255" depart="484.00">
        <route edges="B1A1 A1A2 A2A3 A3B3 B3B4"/>
    </vehicle>
    <vehicle id="256" depart="485.89">
        <route edges="D3C3 C3B3 B3B4 B4C4"/>
    </vehicle>
    <vehicle id="257" depart="486.00">
        <route edges="D3C3 C3C4 C4D4 D4E4"/>
    </vehicle>
    <vehicle id="258" depart="487.88">
        <route edges="B2A2 A2A3"/>
    </vehicle>
    <vehicle id="259" depart="488.00">
        <route edges="A0B0 B0B1 B1B2 B2B3 B3C3 C3C2"/>
    </vehicle>
    <vehicle id="260" depart="489.87">
        <route edges="E4E3 E3D3 D3D2 D2C2 C2B2 B2B3 B3C3"/>
    </vehicle>
    <vehicle id="261" depart="490.00">
        <route edges="D1C1 C1C2 C2C3 C3D3 D3D4"/>
    </vehicle>
    <vehicle id="262" depart="491.86">
        <route edges="D1C1 C1C2 C2D2 D2D3 D3C3"/>
    </vehicle>
    <vehicle id="263" depart="492.00">
        <route edges="E3D3 D3D2 D2C2 C2C1 C1B1 B1B0 B0C0"/>
    </vehicle>
    <vehicle id="264" depart="493.86">
        <route edges="A0B0 B0B1 B1B2 B2B3 B3A3 A3A4 A4B4"/>
    </vehicle>
    <vehicle id="265" depart="494.00">
        <route edges="A3B3 B3B2 B2C2 C2C1 C1D1 D1D0"/>
    </vehicle>
    <vehicle id="266" depart="495.85">
        <route edges="C3D3 D3D2 D2C2 C2C1 C1B1 B1B0"/>
    </vehicle>
    <vehicle id="267" depart="496.00">
        <route edges="D1E1 E1E2 E2E3 E3D3 D3D2"/>
    </vehicle>
    <vehicle id="268" depart="497.84">
        <route edges="B0A0 A0A1 A1A2 A2B2 B2B3 B3C3 C3C4 C4D4"/>
    </vehicle>
    <vehicle id="269" depart="498.00">
        <route edges="D2E2 E2E3 E3D3 D3C3 C3B3 B3A3 A3A4"/>
    </vehicle>
    <vehicle id="270" depart="499.83">
        <route edges="D4D3 D3E3 E3E4"/>
    </vehicle>
    <vehicle id="271" depart="500.00">
        <route edges="A3A2 A2A1 A1A0"/>
    </vehicle>
    <vehicle id="272" depart="501.83">
        <route edges="B3A3 A3A2 A2B2 B2C2 C2C1 C1D1 D1D2"/>
    </vehicle>
    <vehicle id="273" depart="502.00">
        <route edges="E3E2 E2D2 D2D1 D1C1 C1C0 C0B0"/>
    </vehicle>
    <vehicle id="274" depart="503.82">
        <route edges="D2D1 D1C1 C1B1 B1B2 B2A2 A2A3"/>
    </vehicle>
    <vehicle id="275" depart="504.00">
        <route edges="D1E1 E1E0 E0D0 D0D1"/>
    </vehicle>
    <vehicle id="276" depart="505.81">
        <route edges="A3A2 A2B2 B2C2 C2C3 C3D3 D3D2"/>
    </vehicle>
    <vehicle id="277" depart="506.00">