<?xml version="1.0" encoding="UTF-8"?>

<!-- generated on 2025-09-30 20:10:20 by Eclipse SUMO netconvert Version 1.20.0
<configuration xmlns:xsi="http://www.w3.org/2001/XMLSchema-instance" xsi:noNamespaceSchemaLocation="http://sumo.dlr.de/xsd/netconvertConfiguration.xsd">

    <input>
        <sumo-net-file value="5x5.net.xml"/>
    </input>

    <output>
        <output-file value="actuated.net.xml"/>
        <plain-output-prefix value="actuated"/>
    </output>

    <processing>
        <geometry.min-radius.fix.railways value="false"/>
        <geometry.max-grade.fix value="false"/>
        <offset.disable-normalization value="true"/>
        <lefthand value="0"/>
    </processing>

    <tls_building>
        <tls.default-type value="actuated"/>
        <tls.rebuild value="true"/>
    </tls_building>

    <junctions>
        <no-turnarounds value="true"/>
        <junctions.corner-detail value="5"/>
        <junctions.limit-turn-speed value="5.50"/>
        <rectangular-lane-cut value="0"/>
    </junctions>

    <pedestrian>
        <walkingareas value="0"/>
    </pedestrian>

</configuration>
-->

<tlLogics version="1.20" xmlns:xsi="http://www.w3.org/2001/XMLSchema-instance" xsi:noNamespaceSchemaLocation="http://sumo.dlr.de/xsd/tllogic_file.xsd">
    <tlLogic id="A1" type="actuated" programID="0" offset="0">
        <phase duration="42" state="GGGggrrrGGGG" minDur="5" maxDur="50"/>
        <phase duration="3"  state="yyyyyrrrGyyy"/>
        <phase duration="42" state="rrrrrGGGGrrr" minDur="5" maxDur="50"/>
        <phase duration="3"  state="rrrrryyyGrrr"/>
    </tlLogic>
    <tlLogic id="A2" type="actuated" programID="0" offset="0">
        <phase duration="42" state="GGGggrrrGGGG" minDur="5" maxDur="50"/>
        <phase duration="3"  state="yyyyyrrrGyyy"/>
        <phase duration="42" state="rrrrrGGGGrrr" minDur="5" maxDur="50"/>
        <phase duration="3"  state="rrrrryyyGrrr"/>
    </tlLogic>
    <tlLogic id="A3" type="actuated" programID="0" offset="0">
        <phase duration="42" state="GGGggrrrGGGG" minDur="5" maxDur="50"/>
        <phase duration="3"  state="yyyyyrrrGyyy"/>
        <phase duration="42" state="rrrrrGGGGrrr" minDur="5" maxDur="50"/>
        <phase duration="3"  state="rrrrryyyGrrr"/>
    </tlLogic>
    <tlLogic id="B0" type="actuated" programID="0" offset="0">
        <phase duration="42" state="rrrGGGGGGGgg" minDur="5" maxDur="50"/>
        <phase duration="3"  state="rrrGyyyyyyyy"/>
        <phase duration="42" state="GGGGrrrrrrrr" minDur="5" maxDur="50"/>
        <phase duration="3"  state="yyyGrrrrrrrr"/>
    </tlLogic>
    <tlLogic id="B1" type="actuated" programID="0" offset="0">
        <phase duration="33" state="GGGgrrrrGGGgrrrr" minDur="5" maxDur="50"/>
        <phase duration="3"  state="yyygrrrryyygrrrr"/>
        <phase duration="6"  state="rrrGrrrrrrrGrrrr" minDur="5" maxDur="50"/>
        <phase duration="3"  state="rrryrrrrrrryrrrr"/>
        <phase duration="33" state="rrrrGGGgrrrrGGGg" minDur="5" maxDur="50"/>
        <phase duration="3"  state="rrrryyygrrrryyyg"/>
        <phase duration="6"  state="rrrrrrrGrrrrrrrG" minDur="5" maxDur="50"/>
        <phase duration="3"  state="rrrrrrryrrrrrrry"/>
    </tlLogic>
    <tlLogic id="B2" type="actuated" programID="0" offset="0">
        <phase duration="33" state="GGGgrrrrGGGgrrrr" minDur="5" maxDur="50"/>
        <phase duration="3"  state="yyygrrrryyygrrrr"/>
        <phase duration="6"  state="rrrGrrrrrrrGrrrr" minDur="5" maxDur="50"/>
        <phase duration="3"  state="rrryrrrrrrryrrrr"/>
        <phase duration="33" state="rrrrGGGgrrrrGGGg" minDur="5" maxDur="50"/>
        <phase duration="3"  state="rrrryyygrrrryyyg"/>
        <phase duration="6"  state="rrrrrrrGrrrrrrrG" minDur="5" maxDur="50"/>
        <phase duration="3"  state="rrrrrrryrrrrrrry"/>
    </tlLogic>
    <tlLogic id="B3" type="actuated" programID="0" offset="0">
        <phase duration="33" state="GGGgrrrrGGGgrrrr" minDur="5" maxDur="50"/>
        <phase duration="3"  state="yyygrrrryyygrrrr"/>
        <phase duration="6"  state="rrrGrrrrrrrGrrrr" minDur="5" maxDur="50"/>
        <phase duration="3"  state="rrryrrrrrrryrrrr"/>
        <phase duration="33" state="rrrrGGGgrrrrGGGg" minDur="5" maxDur="50"/>
        <phase duration="3"  state="rrrryyygrrrryyyg"/>
        <phase duration="6"  state="rrrrrrrGrrrrrrrG" minDur="5" maxDur="50"/>
        <phase duration="3"  state="rrrrrrryrrrrrrry"/>
    </tlLogic>
    <tlLogic id="B4" type="actuated" programID="0" offset="0">
        <phase duration="42" state="GGGggrrrGGGG" minDur="5" maxDur="50"/>
        <phase duration="3"  state="yyyyyrrrGyyy"/>
        <phase duration="42" state="rrrrrGGGGrrr" minDur="5" maxDur="50"/>
        <phase duration="3"  state="rrrrryyyGrrr"/>
    </tlLogic>
    <tlLogic id="C0" type="actuated" programID="0" offset="0">
        <phase duration="42" state="rrrGGGGGGGgg" minDur="5" maxDur="50"/>
        <phase duration="3"  state="rrrGyyyyyyyy"/>
        <phase duration="42" state="GGGGrrrrrrrr" minDur="5" maxDur="50"/>
        <phase duration="3"  state="yyyGrrrrrrrr"/>
    </tlLogic>
    <tlLogic id="C1" type="actuated" programID="0" offset="0">
        <phase duration="33" state="GGGgrrrrGGGgrrrr" minDur="5" maxDur="50"/>
        <phase duration="3"  state="yyygrrrryyygrrrr"/>
        <phase duration="6"  state="rrrGrrrrrrrGrrrr" minDur="5" maxDur="50"/>
        <phase duration="3"  state="rrryrrrrrrryrrrr"/>
        <phase duration="33" state="rrrrGGGgrrrrGGGg" minDur="5" maxDur="50"/>
        <phase duration="3"  state="rrrryyygrrrryyyg"/>
        <phase duration="6"  state="rrrrrrrGrrrrrrrG" minDur="5" maxDur="50"/>
        <phase duration="3"  state="rrrrrrryrrrrrrry"/>
    </tlLogic>
    <tlLogic id="C2" type="actuated" programID="0" offset="0">
        <phase duration="33" state="GGGgrrrrGGGgrrrr" minDur="5" maxDur="50"/>
        <phase duration="3"  state="yyygrrrryyygrrrr"/>
        <phase duration="6"  state="rrrGrrrrrrrGrrrr" minDur="5" maxDur="50"/>
        <phase duration="3"  state="rrryrrrrrrryrrrr"/>
        <phase duration="33" state="rrrrGGGgrrrrGGGg" minDur="5" maxDur="50"/>
        <phase duration="3"  state="rrrryyygrrrryyyg"/>
        <phase duration="6"  state="rrrrrrrGrrrrrrrG" minDur="5" maxDur="50"/>
        <phase duration="3"  state="rrrrrrryrrrrrrry"/>
    </tlLogic>
    <tlLogic id="C3" type="actuated" programID="0" offset="0">
        <phase duration="33" state="GGGgrrrrGGGgrrrr" minDur="5" maxDur="50"/>
        <phase duration="3"  state="yyygrrrryyygrrrr"/>
        <phase duration="6"  state="rrrGrrrrrrrGrrrr" minDur="5" maxDur="50"/>
        <phase duration="3"  state="rrryrrrrrrryrrrr"/>
        <phase duration="33" state="rrrrGGGgrrrrGGGg" minDur="5" maxDur="50"/>
        <phase duration="3"  state="rrrryyygrrrryyyg"/>
        <phase duration="6"  state="rrrrrrrGrrrrrrrG" minDur="5" maxDur="50"/>
        <phase duration="3"  state="rrrrrrryrrrrrrry"/>
    </tlLogic>
    <tlLogic id="C4" type="actuated" programID="0" offset="0">
        <phase duration="42" state="GGGggrrrGGGG" minDur="5" maxDur="50"/>
        <phase duration="3"  state="yyyyyrrrGyyy"/>
        <phase duration="42" state="rrrrrGGGGrrr" minDur="5" maxDur="50"/>
        <phase duration="3"  state="rrrrryyyGrrr"/>
    </tlLogic>
    <tlLogic id="D0" type="actuated" programID="0" offset="0">
        <phase duration="42" state="rrrGGGGGGGgg" minDur="5" maxDur="50"/>
        <phase duration="3"  state="rrrGyyyyyyyy"/>
        <phase duration="42" state="GGGGrrrrrrrr" minDur="5" maxDur="50"/>
        <phase duration="3"  state="yyyGrrrrrrrr"/>
    </tlLogic>
    <tlLogic id="D1" type="actuated" programID="0" offset="0">
        <phase duration="33" state="GGGgrrrrGGGgrrrr" minDur="5" maxDur="50"/>
        <phase duration="3"  state="yyygrrrryyygrrrr"/>
        <phase duration="6"  state="rrrGrrrrrrrGrrrr" minDur="5" maxDur="50"/>
        <phase duration="3"  state="rrryrrrrrrryrrrr"/>
        <phase duration="33" state="rrrrGGGgrrrrGGGg" minDur="5" maxDur="50"/>
        <phase duration="3"  state="rrrryyygrrrryyyg"/>
        <phase duration="6"  state="rrrrrrrGrrrrrrrG" minDur="5" maxDur="50"/>
        <phase duration="3"  state="rrrrrrryrrrrrrry"/>
    </tlLogic>
    <tlLogic id="D2" type="actuated" programID="0" offset="0">
        <phase duration="33" state="GGGgrrrrGGGgrrrr" minDur="5" maxDur="50"/>
        <phase duration="3"  state="yyygrrrryyygrrrr"/>
        <phase duration="6"  state="rrrGrrrrrrrGrrrr" minDur="5" maxDur="50"/>
        <phase duration="3"  state="rrryrrrrrrryrrrr"/>
        <phase duration="33" state="rrrrGGGgrrrrGGGg" minDur="5" maxDur="50"/>
        <phase duration="3"  state="rrrryyygrrrryyyg"/>
        <phase duration="6"  state="rrrrrrrGrrrrrrrG" minDur="5" maxDur="50"/>
        <phase duration="3"  state="rrrrrrryrrrrrrry"/>
    </tlLogic>
    <tlLogic id="D3" type="actuated" programID="0" offset="0">
        <phase duration="33" state="GGGgrrrrGGGgrrrr" minDur="5" maxDur="50"/>
        <phase duration="3"  state="yyygrrrryyygrrrr"/>
        <phase duration="6"  state="rrrGrrrrrrrGrrrr" minDur="5" maxDur="50"/>
        <phase duration="3"  state="rrryrrrrrrryrrrr"/>
        <phase duration="33" state="rrrrGGGgrrrrGGGg" minDur="5" maxDur="50"/>
        <phase duration="3"  state="rrrryyygrrrryyyg"/>
        <phase duration="6"  state="rrrrrrrGrrrrrrrG" minDur="5" maxDur="50"/>
        <phase duration="3"  state="rrrrrrryrrrrrrry"/>
    </tlLogic>
    <tlLogic id="D4" type="actuated" programID="0" offset="0">
        <phase duration="42" state="GGGggrrrGGGG" minDur="5" maxDur="50"/>
        <phase duration="3"  state="yyyyyrrrGyyy"/>
        <phase duration="42" state="rrrrrGGGGrrr" minDur="5" maxDur="50"/>
        <phase duration="3"  state="rrrrryyyGrrr"/>
    </tlLogic>
    <tlLogic id="E1" type="actuated" programID="0" offset="0">
        <phase duration="42" state="GGGGGGGggrrr" minDur="5" maxDur="50"/>
        <phase duration="3"  state="Gyyyyyyyyrrr"/>
        <phase duration="42" state="GrrrrrrrrGGG" minDur="5" maxDur="50"/>
        <phase duration="3"  state="Grrrrrrrryyy"/>
    </tlLogic>
    <tlLogic id="E2" type="actuated" programID="0" offset="0">
        <phase duration="42" state="GGGGGGGggrrr" minDur="5" maxDur="50"/>
        <phase duration="3"  state="Gyyyyyyyyrrr"/>
        <phase duration="42" state="GrrrrrrrrGGG" minDur="5" maxDur="50"/>
        <phase duration="3"  state="Grrrrrrrryyy"/>
    </tlLogic>
    <tlLogic id="E3" type="actuated" programID="0" offset="0">
        <phase duration="42" state="GGGGGGGggrrr" minDur="5" maxDur="50"/>
        <phase duration="3"  state="Gyyyyyyyyrrr"/>
        <phase duration="42" state="GrrrrrrrrGGG" minDur="5" maxDur="50"/>
        <phase duration="3"  state="Grrrrrrrryyy"/>
    </tlLogic>

    <connection from="A0A1" to="A1B1" fromLane="0" toLane="0" tl="A1" linkIndex="8"/>
    <connection from="A0A1" to="A1A2" fromLane="0" toLane="0" tl="A1" linkIndex="9"/>
    <connection from="A0A1" to="A1A2" fromLane="1" toLane="1" tl="A1" linkIndex="10"/>
    <connection from="A0A1" to="A1A2" fromLane="2" toLane="2" tl="A1" linkIndex="11"/>
    <connection from="A0B0" to="B0C0" fromLane="0" toLane="0" tl="B0" linkIndex="7"/>
    <connection from="A0B0" to="B0C0" fromLane="1" toLane="1" tl="B0" linkIndex="8"/>
    <connection from="A0B0" to="B0C0" fromLane="2" toLane="2" tl="B0" linkIndex="9"/>
    <connection from="A0B0" to="B0B1" fromLane="2" toLane="1" tl="B0" linkIndex="10"/>
    <connection from="A0B0" to="B0B1" fromLane="2" toLane="2" tl="B0" linkIndex="11"/>
    <connection from="A1A2" to="A2B2" fromLane="0" toLane="0" tl="A2" linkIndex="8"/>
    <connection from="A1A2" to="A2A3" fromLane="0" toLane="0" tl="A2" linkIndex="9"/>
    <connection from="A1A2" to="A2A3" fromLane="1" toLane="1" tl="A2" linkIndex="10"/>
    <connection from="A1A2" to="A2A3" fromLane="2" toLane="2" tl="A2" linkIndex="11"/>
    <connection from="A1B1" to="B1B0" fromLane="0" toLane="0" tl="B1" linkIndex="12"/>
    <connection from="A1B1" to="B1C1" fromLane="0" toLane="0" tl="B1" linkIndex="13"/>
    <connection from="A1B1" to="B1C1" fromLane="1" toLane="1" tl="B1" linkIndex="14"/>
    <connection from="A1B1" to="B1B2" fromLane="2" toLane="2" tl="B1" linkIndex="15"/>
    <connection from="A2A1" to="A1A0" fromLane="0" toLane="0" tl="A1" linkIndex="0"/>
    <connection from="A2A1" to="A1A0" fromLane="1" toLane="1" tl="A1" linkIndex="1"/>
    <connection from="A2A1" to="A1A0" fromLane="2" toLane="2" tl="A1" linkIndex="2"/>
    <connection from="A2A1" to="A1B1" fromLane="2" toLane="1" tl="A1" linkIndex="3"/>
    <connection from="A2A1" to="A1B1" fromLane="2" toLane="2" tl="A1" linkIndex="4"/>
    <connection from="A2A3" to="A3B3" fromLane="0" toLane="0" tl="A3" linkIndex="8"/>
    <connection from="A2A3" to="A3A4" fromLane="0" toLane="0" tl="A3" linkIndex="9"/>
    <connection from="A2A3" to="A3A4" fromLane="1" toLane="1" tl="A3" linkIndex="10"/>
    <connection from="A2A3" to="A3A4" fromLane="2" toLane="2" tl="A3" linkIndex="11"/>
    <connection from="A2B2" to="B2B1" fromLane="0" toLane="0" tl="B2" linkIndex="12"/>
    <connection from="A2B2" to="B2C2" fromLane="0" toLane="0" tl="B2" linkIndex="13"/>
    <connection from="A2B2" to="B2C2" fromLane="1" toLane="1" tl="B2" linkIndex="14"/>
    <connection from="A2B2" to="B2B3" fromLane="2" toLane="2" tl="B2" linkIndex="15"/>
    <connection from="A3A2" to="A2A1" fromLane="0" toLane="0" tl="A2" linkIndex="0"/>
    <connection from="A3A2" to="A2A1" fromLane="1" toLane="1" tl="A2" linkIndex="1"/>
    <connection from="A3A2" to="A2A1" fromLane="2" toLane="2" tl="A2" linkIndex="2"/>
    <connection from="A3A2" to="A2B2" fromLane="2" toLane="1" tl="A2" linkIndex="3"/>
    <connection from="A3A2" to="A2B2" fromLane="2" toLane="2" tl="A2" linkIndex="4"/>
    <connection from="A3B3" to="B3B2" fromLane="0" toLane="0" tl="B3" linkIndex="12"/>
    <connection from="A3B3" to="B3C3" fromLane="0" toLane="0" tl="B3" linkIndex="13"/>
    <connection from="A3B3" to="B3C3" fromLane="1" toLane="1" tl="B3" linkIndex="14"/>
    <connection from="A3B3" to="B3B4" fromLane="2" toLane="2" tl="B3" linkIndex="15"/>
    <connection from="A4A3" to="A3A2" fromLane="0" toLane="0" tl="A3" linkIndex="0"/>
    <connection from="A4A3" to="A3A2" fromLane="1" toLane="1" tl="A3" linkIndex="1"/>
    <connection from="A4A3" to="A3A2" fromLane="2" toLane="2" tl="A3" linkIndex="2"/>
    <connection from="A4A3" to="A3B3" fromLane="2" toLane="1" tl="A3" linkIndex="3"/>
    <connection from="A4A3" to="A3B3" fromLane="2" toLane="2" tl="A3" linkIndex="4"/>
    <connection from="A4B4" to="B4B3" fromLane="0" toLane="0" tl="B4" linkIndex="8"/>
    <connection from="A4B4" to="B4C4" fromLane="0" toLane="0" tl="B4" linkIndex="9"/>
    <connection from="A4B4" to="B4C4" fromLane="1" toLane="1" tl="B4" linkIndex="10"/>
    <connection from="A4B4" to="B4C4" fromLane="2" toLane="2" tl="B4" linkIndex="11"/>
    <connection from="B0B1" to="B1C1" fromLane="0" toLane="0" tl="B1" linkIndex="8"/>
    <connection from="B0B1" to="B1B2" fromLane="0" toLane="0" tl="B1" linkIndex="9"/>
    <connection from="B0B1" to="B1B2" fromLane="1" toLane="1" tl="B1" linkIndex="10"/>
    <connection from="B0B1" to="B1A1" fromLane="2" toLane="2" tl="B1" linkIndex="11"/>
    <connection from="B0C0" to="C0D0" fromLane="0" toLane="0" tl="C0" linkIndex="7"/>
    <connection from="B0C0" to="C0D0" fromLane="1" toLane="1" tl="C0" linkIndex="8"/>
    <connection from="B0C0" to="C0D0" fromLane="2" toLane="2" tl="C0" linkIndex="9"/>
    <connection from="B0C0" to="C0C1" fromLane="2" toLane="1" tl="C0" linkIndex="10"/>
    <connection from="B0C0" to="C0C1" fromLane="2" toLane="2" tl="C0" linkIndex="11"/>
    <connection from="B1A1" to="A1A2" fromLane="0" toLane="0" tl="A1" linkIndex="5"/>
    <connection from="B1A1" to="A1A0" fromLane="1" toLane="1" tl="A1" linkIndex="6"/>
    <connection from="B1A1" to="A1A0" fromLane="2" toLane="2" tl="A1" linkIndex="7"/>
    <connection from="B1B0" to="B0A0" fromLane="0" toLane="0" tl="B0" linkIndex="0"/>
    <connection from="B1B0" to="B0C0" fromLane="1" toLane="1" tl="B0" linkIndex="1"/>
    <connection from="B1B0" to="B0C0" fromLane="2" toLane="2" tl="B0" linkIndex="2"/>
    <connection from="B1B2" to="B2C2" fromLane="0" toLane="0" tl="B2" linkIndex="8"/>
    <connection from="B1B2" to="B2B3" fromLane="0" toLane="0" tl="B2" linkIndex="9"/>
    <connection from="B1B2" to="B2B3" fromLane="1" toLane="1" tl="B2" linkIndex="10"/>
    <connection from="B1B2" to="B2A2" fromLane="2" toLane="2" tl="B2" linkIndex="11"/>
    <connection from="B1C1" to="C1C0" fromLane="0" toLane="0" tl="C1" linkIndex="12"/>
    <connection from="B1C1" to="C1D1" fromLane="0" toLane="0" tl="C1" linkIndex="13"/>
    <connection from="B1C1" to="C1D1" fromLane="1" toLane="1" tl="C1" linkIndex="14"/>
    <connection from="B1C1" to="C1C2" fromLane="2" toLane="2" tl="C1" linkIndex="15"/>
    <connection from="B2A2" to="A2A3" fromLane="0" toLane="0" tl="A2" linkIndex="5"/>
    <connection from="B2A2" to="A2A1" fromLane="1" toLane="1" tl="A2" linkIndex="6"/>
    <connection from="B2A2" to="A2A1" fromLane="2" toLane="2" tl="A2" linkIndex="7"/>
    <connection from="B2B1" to="B1A1" fromLane="0" toLane="0" tl="B1" linkIndex="0"/>
    <connection from="B2B1" to="B1B0" fromLane="0" toLane="0" tl="B1" linkIndex="1"/>
    <connection from="B2B1" to="B1B0" fromLane="1" toLane="1" tl="B1" linkIndex="2"/>
    <connection from="B2B1" to="B1C1" fromLane="2" toLane="2" tl="B1" linkIndex="3"/>
    <connection from="B2B3" to="B3C3" fromLane="0" toLane="0" tl="B3" linkIndex="8"/>
    <connection from="B2B3" to="B3B4" fromLane="0" toLane="0" tl="B3" linkIndex="9"/>
    <connection from="B2B3" to="B3B4" fromLane="1" toLane="1" tl="B3" linkIndex="10"/>
    <connection from="B2B3" to="B3A3" fromLane="2" toLane="2" tl="B3" linkIndex="11"/>
    <connection from="B2C2" to="C2C1" fromLane="0" toLane="0" tl="C2" linkIndex="12"/>
    <connection from="B2C2" to="C2D2" fromLane="0" toLane="0" tl="C2" linkIndex="13"/>
    <connection from="B2C2" to="C2D2" fromLane="1" toLane="1" tl="C2" linkIndex="14"/>
    <connection from="B2C2" to="C2C3" fromLane="2" toLane="2" tl="C2" linkIndex="15"/>
    <connection from="B3A3" to="A3A4" fromLane="0" toLane="0" tl="A3" linkIndex="5"/>
    <connection from="B3A3" to="A3A2" fromLane="1" toLane="1" tl="A3" linkIndex="6"/>
    <connection from="B3A3" to="A3A2" fromLane="2" toLane="2" tl="A3" linkIndex="7"/>
    <connection from="B3B2" to="B2A2" fromLane="0" toLane="0" tl="B2" linkIndex="0"/>
    <connection from="B3B2" to="B2B1" fromLane="0" toLane="0" tl="B2" linkIndex="1"/>
    <connection from="B3B2" to="B2B1" fromLane="1" toLane="1" tl="B2" linkIndex="2"/>
    <connection from="B3B2" to="B2C2" fromLane="2" toLane="2" tl="B2" linkIndex="3"/>
    <connection from="B3B4" to="B4C4" fromLane="0" toLane="0" tl="B4" linkIndex="5"/>
    <connection from="B3B4" to="B4A4" fromLane="1" toLane="1" tl="B4" linkIndex="6"/>
    <connection from="B3B4" to="B4A4" fromLane="2" toLane="2" tl="B4" linkIndex="7"/>
    <connection from="B3C3" to="C3C2" fromLane="0" toLane="0" tl="C3" linkIndex="12"/>
    <connection from="B3C3" to="C3D3" fromLane="0" toLane="0" tl="C3" linkIndex="13"/>
    <connection from="B3C3" to="C3D3" fromLane="1" toLane="1" tl="C3" linkIndex="14"/>
    <connection from="B3C3" to="C3C4" fromLane="2" toLane="2" tl="C3" linkIndex="15"/>
    <connection from="B4B3" to="B3A3" fromLane="0" toLane="0" tl="B3" linkIndex="0"/>
    <connection from="B4B3" to="B3B2" fromLane="0" toLane="0" tl="B3" linkIndex="1"/>
    <connection from="B4B3" to="B3B2" fromLane="1" toLane="1" tl="B3" linkIndex="2"/>
    <connection from="B4B3" to="B3C3" fromLane="2" toLane="2" tl="B3" linkIndex="3"/>
    <connection from="B4C4" to="C4C3" fromLane="0" toLane="0" tl="C4" linkIndex="8"/>
    <connection from="B4C4" to="C4D4" fromLane="0" toLane="0" tl="C4" linkIndex="9"/>
    <connection from="B4C4" to="C4D4" fromLane="1" toLane="1" tl="C4" linkIndex="10"/>
    <connection from="B4C4" to="C4D4" fromLane="2" toLane="2" tl="C4" linkIndex="11"/>
    <connection from="C0B0" to="B0B1" fromLane="0" toLane="0" tl="B0" linkIndex="3"/>
    <connection from="C0B0" to="B0A0" fromLane="0" toLane="0" tl="B0" linkIndex="4"/>
    <connection from="C0B0" to="B0A0" fromLane="1" toLane="1" tl="B0" linkIndex="5"/>
    <connection from="C0B0" to="B0A0" fromLane="2" toLane="2" tl="B0" linkIndex="6"/>
    <connection from="C0C1" to="C1D1" fromLane="0" toLane="0" tl="C1" linkIndex="8"/>
    <connection from="C0C1" to="C1C2" fromLane="0" toLane="0" tl="C1" linkIndex="9"/>
    <connection from="C0C1" to="C1C2" fromLane="1" toLane="1" tl="C1" linkIndex="10"/>
    <connection from="C0C1" to="C1B1" fromLane="2" toLane="2" tl="C1" linkIndex="11"/>
    <connection from="C0D0" to="D0E0" fromLane="0" toLane="0" tl="D0" linkIndex="7"/>
    <connection from="C0D0" to="D0E0" fromLane="1" toLane="1" tl="D0" linkIndex="8"/>
    <connection from="C0D0" to="D0E0" fromLane="2" toLane="2" tl="D0" linkIndex="9"/>
    <connection from="C0D0" to="D0D1" fromLane="2" toLane="1" tl="D0" linkIndex="10"/>
    <connection from="C0D0" to="D0D1" fromLane="2" toLane="2" tl="D0" linkIndex="11"/>
    <connection from="C1B1" to="B1B2" fromLane="0" toLane="0" tl="B1" linkIndex="4"/>
    <connection from="C1B1" to="B1A1" fromLane="0" toLane="0" tl="B1" linkIndex="5"/>
    <connection from="C1B1" to="B1A1" fromLane="1" toLane="1" tl="B1" linkIndex="6"/>
    <connection from="C1B1" to="B1B0" fromLane="2" toLane="2" tl="B1" linkIndex="7"/>
    <connection from="C1C0" to="C0B0" fromLane="0" toLane="0" tl="C0" linkIndex="0"/>
    <connection from="C1C0" to="C0D0" fromLane="1" toLane="1" tl="C0" linkIndex="1"/>
    <connection from="C1C0" to="C0D0" fromLane="2" toLane="2" tl="C0" linkIndex="2"/>
    <connection from="C1C2" to="C2D2" fromLane="0" toLane="0" tl="C2" linkIndex="8"/>
    <connection from="C1C2" to="C2C3" fromLane="0" toLane="0" tl="C2" linkIndex="9"/>
    <connection from="C1C2" to="C2C3" fromLane="1" toLane="1" tl="C2" linkIndex="10"/>
    <connection from="C1C2" to="C2B2" fromLane="2" toLane="2" tl="C2" linkIndex="11"/>
    <connection from="C1D1" to="D1D0" fromLane="0" toLane="0" tl="D1" linkIndex="12"/>
    <connection from="C1D1" to="D1E1" fromLane="0" toLane="0" tl="D1" linkIndex="13"/>
    <connection from="C1D1" to="D1E1" fromLane="1" toLane="1" tl="D1" linkIndex="14"/>
    <connection from="C1D1" to="D1D2" fromLane="2" toLane="2" tl="D1" linkIndex="15"/>
    <connection from="C2B2" to="B2B3" fromLane="0" toLane="0" tl="B2" linkIndex="4"/>
    <connection from="C2B2" to="B2A2" fromLane="0" toLane="0" tl="B2" linkIndex="5"/>
    <connection from="C2B2" to="B2A2" fromLane="1" toLane="1" tl="B2" linkIndex="6"/>
    <connection from="C2B2" to="B2B1" fromLane="2" toLane="2" tl="B2" linkIndex="7"/>
    <connection from="C2C1" to="C1B1" fromLane="0" toLane="0" tl="C1" linkIndex="0"/>
    <connection from="C2C1" to="C1C0" fromLane="0" toLane="0" tl="C1" linkIndex="1"/>
    <connection from="C2C1" to="C1C0" fromLane="1" toLane="1" tl="C1" linkIndex="2"/>
    <connection from="C2C1" to="C1D1" fromLane="2" toLane="2" tl="C1" linkIndex="3"/>
    <connection from="C2C3" to="C3D3" fromLane="0" toLane="0" tl="C3" linkIndex="8"/>
    <connection from="C2C3" to="C3C4" fromLane="0" toLane="0" tl="C3" linkIndex="9"/>
    <connection from="C2C3" to="C3C4" fromLane="1" toLane="1" tl="C3" linkIndex="10"/>
    <connection from="C2C3" to="C3B3" fromLane="2" toLane="2" tl="C3" linkIndex="11"/>
    <connection from="C2D2" to="D2D1" fromLane="0" toLane="0" tl="D2" linkIndex="12"/>
    <connection from="C2D2" to="D2E2" fromLane="0" toLane="0" tl="D2" linkIndex="13"/>
    <connection from="C2D2" to="D2E2" fromLane="1" toLane="1" tl="D2" linkIndex="14"/>
    <connection from="C2D2" to="D2D3" fromLane="2" toLane="2" tl="D2" linkIndex="15"/>
    <connection from="C3B3" to="B3B4" fromLane="0" toLane="0" tl="B3" linkIndex="4"/>
    <connection from="C3B3" to="B3A3" fromLane="0" toLane="0" tl="B3" linkIndex="5"/>
    <connection from="C3B3" to="B3A3" fromLane="1" toLane="1" tl="B3" linkIndex="6"/>
    <connection from="C3B3" to="B3B2" fromLane="2" toLane="2" tl="B3" linkIndex="7"/>
    <connection from="C3C2" to="C2B2" fromLane="0" toLane="0" tl="C2" linkIndex="0"/>
    <connection from="C3C2" to="C2C1" fromLane="0" toLane="0" tl="C2" linkIndex="1"/>
    <connection from="C3C2" to="C2C1" fromLane="1" toLane="1" tl="C2" linkIndex="2"/>
    <connection from="C3C2" to="C2D2" fromLane="2" toLane="2" tl="C2" linkIndex="3"/>
    <connection from="C3C4" to="C4D4" fromLane="0" toLane="0" tl="C4" linkIndex="5"/>
    <connection from="C3C4" to="C4B4" fromLane="1" toLane="1" tl="C4" linkIndex="6"/>
    <connection from="C3C4" to="C4B4" fromLane="2" toLane="2" tl="C4" linkIndex="7"/>
    <connection from="C3D3" to="D3D2" fromLane="0" toLane="0" tl="D3" linkIndex="12"/>
    <connection from="C3D3" to="D3E3" fromLane="0" toLane="0" tl="D3" linkIndex="13"/>
    <connection from="C3D3" to="D3E3" fromLane="1" toLane="1" tl="D3" linkIndex="14"/>
    <connection from="C3D3" to="D3D4" fromLane="2" toLane="2" tl="D3" linkIndex="15"/>
    <connection from="C4B4" to="B4A4" fromLane="0" toLane="0" tl="B4" linkIndex="0"/>
    <connection from="C4B4" to="B4A4" fromLane="1" toLane="1" tl="B4" linkIndex="1"/>
    <connection from="C4B4" to="B4A4" fromLane="2" toLane="2" tl="B4" linkIndex="2"/>
    <connection from="C4B4" to="B4B3" fromLane="2" toLane="1" tl="B4" linkIndex="3"/>
    <connection from="C4B4" to="B4B3" fromLane="2" toLane="2" tl="B4" linkIndex="4"/>
    <connection from="C4C3" to="C3B3" fromLane="0" toLane="0" tl="C3" linkIndex="0"/>
    <connection from="C4C3" to="C3C2" fromLane="0" toLane="0" tl="C3" linkIndex="1"/>
    <connection from="C4C3" to="C3C2" fromLane="1" toLane="1" tl="C3" linkIndex="2"/>
    <connection from="C4C3" to="C3D3" fromLane="2" toLane="2" tl="C3" linkIndex="3"/>
    <connection from="C4D4" to="D4D3" fromLane="0" toLane="0" tl="D4" linkIndex="8"/>
    <connection from="C4D4" to="D4E4" fromLane="0" toLane="0" tl="D4" linkIndex="9"/>
    <connection from="C4D4" to="D4E4" fromLane="1" toLane="1" tl="D4" linkIndex="10"/>
    <connection from="C4D4" to="D4E4" fromLane="2" toLane="2" tl="D4" linkIndex="11"/>
    <connection from="D0C0" to="C0C1" fromLane="0" toLane="0" tl="C0" linkIndex="3"/>
    <connection from="D0C0" to="C0B0" fromLane="0" toLane="0" tl="C0" linkIndex="4"/>
    <connection from="D0C0" to="C0B0" fromLane="1" toLane="1" tl="C0" linkIndex="5"/>
    <connection from="D0C0" to="C0B0" fromLane="2" toLane="2" tl="C0" linkIndex="6"/>
    <connection from="D0D1" to="D1E1" fromLane="0" toLane="0" tl="D1" linkIndex="8"/>
    <connection from="D0D1" to="D1D2" fromLane="0" toLane="0" tl="D1" linkIndex="9"/>
    <connection from="D0D1" to="D1D2" fromLane="1" toLane="1" tl="D1" linkIndex="10"/>
    <connection from="D0D1" to="D1C1" fromLane="2" toLane="2" tl="D1" linkIndex="11"/>
    <connection from="D1C1" to="C1C2" fromLane="0" toLane="0" tl="C1" linkIndex="4"/>
    <connection from="D1C1" to="C1B1" fromLane="0" toLane="0" tl="C1" linkIndex="5"/>
    <connection from="D1C1" to="C1B1" fromLane="1" toLane="1" tl="C1" linkIndex="6"/>
    <connection from="D1C1" to="C1C0" fromLane="2" toLane="2" tl="C1" linkIndex="7"/>
    <connection from="D1D0" to="D0C0" fromLane="0" toLane="0" tl="D0" linkIndex="0"/>
    <connection from="D1D0" to="D0E0" fromLane="1" toLane="1" tl="D0" linkIndex="1"/>
    <connection from="D1D0" to="D0E0" fromLane="2" toLane="2" tl="D0" linkIndex="2"/>
    <connection from="D1D2" to="D2E2" fromLane="0" toLane="0" tl="D2" linkIndex="8"/>
    <connection from="D1D2" to="D2D3" fromLane="0" toLane="0" tl="D2" linkIndex="9"/>
    <connection from="D1D2" to="D2D3" fromLane="1" toLane="1" tl="D2" linkIndex="10"/>
    <connection from="D1D2" to="D2C2" fromLane="2" toLane="2" tl="D2" linkIndex="11"/>
    <connection from="D1E1" to="E1E0" fromLane="0" toLane="0" tl="E1" linkIndex="9"/>
    <connection from="D1E1" to="E1E2" fromLane="1" toLane="1" tl="E1" linkIndex="10"/>
    <connection from="D1E1" to="E1E2" fromLane="2" toLane="2" tl="E1" linkIndex="11"/>
    <connection from="D2C2" to="C2C3" fromLane="0" toLane="0" tl="C2" linkIndex="4"/>
    <connection from="D2C2" to="C2B2" fromLane="0" toLane="0" tl="C2" linkIndex="5"/>
    <connection from="D2C2" to="C2B2" fromLane="1" toLane="1" tl="C2" linkIndex="6"/>
    <connection from="D2C2" to="C2C1" fromLane="2" toLane="2" tl="C2" linkIndex="7"/>
    <connection from="D2D1" to="D1C1" fromLane="0" toLane="0" tl="D1" linkIndex="0"/>
    <connection from="D2D1" to="D1D0" fromLane="0" toLane="0" tl="D1" linkIndex="1"/>
    <connection from="D2D1" to="D1D0" fromLane="1" toLane="1" tl="D1" linkIndex="2"/>
    <connection from="D2D1" to="D1E1" fromLane="2" toLane="2" tl="D1" linkIndex="3"/>
    <connection from="D2D3" to="D3E3" fromLane="0" toLane="0" tl="D3" linkIndex="8"/>
    <connection from="D2D3" to="D3D4" fromLane="0" toLane="0" tl="D3" linkIndex="9"/>
    <connection from="D2D3" to="D3D4" fromLane="1" toLane="1" tl="D3" linkIndex="10"/>
    <connection from="D2D3" to="D3C3" fromLane="2" toLane="2" tl="D3" linkIndex="11"/>
    <connection from="D2E2" to="E2E1" fromLane="0" toLane="0" tl="E2" linkIndex="9"/>
    <connection from="D2E2" to="E2E3" fromLane="1" toLane="1" tl="E2" linkIndex="10"/>
    <connection from="D2E2" to="E2E3" fromLane="2" toLane="2" tl="E2" linkIndex="11"/>
    <connection from="D3C3" to="C3C4" fromLane="0" toLane="0" tl="C3" linkIndex="4"/>
    <connection from="D3C3" to="C3B3" fromLane="0" toLane="0" tl="C3" linkIndex="5"/>
    <connection from="D3C3" to="C3B3" fromLane="1" toLane="1" tl="C3" linkIndex="6"/>
    <connection from="D3C3" to="C3C2" fromLane="2" toLane="2" tl="C3" linkIndex="7"/>
    <connection from="D3D2" to="D2C2" fromLane="0" toLane="0" tl="D2" linkIndex="0"/>